geometry optimzed in LAMMPS
_audit_creation_date              2020-12-01 
_audit_creation_method            'lammps2cif' 
_symmetry_space_group_name_H-M    'P1' 
_symmetry_Int_Tables_number       1 
_symmetry_cell_setting            triclinic 
loop_ 
_symmetry_equiv_pos_as_xyz 
  x,y,z 
_cell_length_a                    45.79075046 
_cell_length_b                    46.003495688834626 
_cell_length_c                    35.227700933590526 
_cell_angle_alpha                 90.16974300161512 
_cell_angle_beta                  90.14899048081057 
_cell_angle_gamma                 88.8596520611234 
loop_ 
_atom_site_label 
_atom_site_type_symbol 
_atom_site_fract_x 
_atom_site_fract_y 
_atom_site_fract_z 
_atom_site_charge 
O1          O  0.94193529  0.95951682  0.19981199    -0.80300
O2          O  0.04147207  0.04854240  0.16589776    -0.65000
O3          O  0.99825126  0.97892868  0.18032057    -1.11600
C4          C  0.01140028  0.00202065  0.31131409     1.06500
O5          O  0.07359560  0.03458583  0.20932549    -0.78200
O6          O  0.06815966  0.98790275  0.25454152    -0.65800
Ni7        Ni  0.96159598  0.97387505  0.15548156     1.34900
C8          C  0.05902712  0.96262727  0.24696087     0.85300
O9          O  0.01985510  0.00896221  0.11750067    -0.78800
O10         O  0.97740238  0.98647960  0.10813857    -0.89100
C11         C  0.06541328  0.05206747  0.18341791     0.84800
O12         O  0.94575331  0.01173863  0.16558326    -0.67300
O13         O  0.03145559  0.01906840  0.30085825    -0.86600
C14         C  0.95757081  0.03647656  0.16597066     0.85700
C15         C  0.00022005  0.99872434  0.09577079     1.07200
H16         H  0.00286029  0.03310583  0.23190016     0.39000
O17         O  0.01671365  0.01769764  0.22576801    -1.09200
O18         O  0.03274799  0.95823155  0.23715493    -0.65900
Ni19       Ni  0.99752748  0.98190280  0.23439329     1.26300
O20         O  0.98510549  0.03946627  0.16674512    -0.66100
O21         O  0.99707299  0.98604877  0.28859875    -0.78400
C22         C  0.95176840  0.94276605  0.22561745     0.85100
O23         O  0.97678290  0.94653824  0.24018274    -0.65600
Ni24       Ni  0.05118087  0.02610322  0.25389575     1.27400
Ni25       Ni  0.01897923  0.01401998  0.17160322     1.26100
H26         H  0.01077454  0.96275131  0.17289904     0.39600
O27         O  0.93083905  0.96129171  0.70313014    -0.80300
O28         O  0.02891866  0.05047538  0.66331687    -0.65000
O29         O  0.98610248  0.98098541  0.68003102    -1.11600
C30         C  0.00641962  0.00298754  0.80989953     1.06500
O31         O  0.06320884  0.03450287  0.70229899    -0.78200
O32         O  0.05934496  0.98931610  0.75005460    -0.65800
Ni33       Ni  0.94857322  0.97626275  0.65739030     1.34900
C34         C  0.04985313  0.96406489  0.74370148     0.85300
O35         O  0.00519390  0.01143883  0.61680791    -0.78800
O36         O  0.96268536  0.98918505  0.60855471    -0.89100
C37         C  0.05486035  0.05148006  0.67596017     0.84800
O38         O  0.93290060  0.01409700  0.66918792    -0.67300
O39         O  0.02507771  0.02083800  0.79730770    -0.86600
C40         C  0.94474438  0.03881953  0.66898890     0.85700
C41         C  0.98549098  0.00123363  0.59541450     1.07200
H42         H  0.99318293  0.03449622  0.73197582     0.39000
O43         O  0.00671323  0.01917687  0.72443541    -1.09200
O44         O  0.02354160  0.95930761  0.73401880    -0.65900
Ni45       Ni  0.98818169  0.98321734  0.73415765     1.26300
O46         O  0.97231003  0.04188194  0.66806378    -0.66100
O47         O  0.99098651  0.98683325  0.78853907    -0.78400
C48         C  0.94145838  0.94472452  0.72890603     0.85100
O49         O  0.96737395  0.94788951  0.74099767    -0.65600
Ni50       Ni  0.04263547  0.02741048  0.74888097     1.27400
Ni51       Ni  0.00634189  0.01616582  0.67046069     1.26100
H52         H  0.99831996  0.96495328  0.67134418     0.39600
O53         O  0.22317505  0.31636817  0.12766276    -0.80300
O54         O  0.31417668  0.21922540  0.08428531    -0.65000
O55         O  0.24198829  0.26069713  0.10257998    -1.11600
C56         C  0.26440147  0.24004876  0.23213550     1.06500
O57         O  0.30044320  0.18476790  0.12299675    -0.78200
O58         O  0.25250884  0.18702072  0.16642439    -0.65800
Ni59       Ni  0.23398556  0.29777026  0.08029489     1.34900
C60         C  0.22678238  0.19693867  0.16155190     0.85300
O61         O  0.27303186  0.24348488  0.03773446    -0.78800
O62         O  0.24315094  0.28250032  0.03081897    -0.89100
C63         C  0.31819182  0.19399381  0.09840871     0.84800
O64         O  0.27199683  0.31382292  0.08464020    -0.67300
O65         O  0.28128271  0.21970482  0.21971802    -0.86600
C66         C  0.29741199  0.30265840  0.08823361     0.85700
C67         C  0.25848497  0.26149844  0.01708630     1.07200
H68         H  0.29643910  0.25286930  0.15430278     0.39000
O69         O  0.28136933  0.23981151  0.14627281    -1.09200
O70         O  0.22149254  0.22402329  0.15662215    -0.65900
Ni71       Ni  0.24487152  0.25881894  0.15656303     1.26300
O72         O  0.30221688  0.27541658  0.09150247    -0.66100
O73         O  0.24931762  0.25669761  0.21053078    -0.78400
C74         C  0.20697348  0.30653504  0.15372935     0.85100
O75         O  0.20910981  0.28023523  0.16425706    -0.65600
Ni76       Ni  0.29022499  0.20366404  0.17020230     1.27400
Ni77       Ni  0.27826233  0.24112488  0.09199154     1.26100
H78         H  0.22655745  0.24812573  0.09426578     0.39600
O79         O  0.21349451  0.31762482  0.62618775    -0.80300
O80         O  0.30143205  0.21741401  0.58634068    -0.65000
O81         O  0.23190493  0.26188542  0.60230989    -1.11600
C82         C  0.25162210  0.23836152  0.73177111     1.06500
O83         O  0.28593692  0.18191526  0.62244092    -0.78200
O84         O  0.23666894  0.18631999  0.66423418    -0.65800
Ni85       Ni  0.22624032  0.29913464  0.57949220     1.34900
C86         C  0.21202793  0.19838750  0.65760774     0.85300
O87         O  0.26396871  0.24323392  0.53903840    -0.78800
O88         O  0.23739694  0.28414674  0.53014467    -0.89100
C89         C  0.30339787  0.19134906  0.59744201     0.84800
O90         O  0.26453667  0.31341602  0.58778877    -0.67300
O91         O  0.26658250  0.21674374  0.71910045    -0.86600
C92         C  0.28930487  0.30093405  0.59192808     0.85700
C93         C  0.25173198  0.26204860  0.51752756     1.07200
H94         H  0.28488226  0.25003398  0.65593123     0.39000
O95         O  0.26915104  0.23811829  0.64700175    -1.09200
O96         O  0.20844079  0.22578549  0.65405554    -0.65900
Ni97       Ni  0.23374880  0.25912042  0.65640603     1.26300
O98         O  0.29271961  0.27347019  0.59417808    -0.66100
O99         O  0.23733637  0.25617727  0.71070874    -0.78400
C100        C  0.19666362  0.30798143  0.65183254     0.85100
O101        O  0.19912540  0.28199210  0.66335327    -0.65600
Ni102      Ni  0.27534053  0.20082732  0.66968131     1.27400
Ni103      Ni  0.26712164  0.24050992  0.59305737     1.26100
H104        H  0.21600612  0.25024533  0.59312804     0.39600
O105        O  0.30936654  0.69098545  0.36223397    -0.80300
O106        O  0.21771782  0.79142459  0.31868888    -0.65000
O107        O  0.28610688  0.74632972  0.34422348    -1.11600
C108        C  0.25937594  0.76867714  0.47091720     1.06500
O109        O  0.22381051  0.82577354  0.36209593    -0.78200
O110        O  0.27765720  0.81941480  0.39536684    -0.65800
Ni111      Ni  0.29027191  0.70918029  0.31962441     1.34900
C112        C  0.30190013  0.80611284  0.40067333     0.85300
O113        O  0.25999805  0.76802226  0.27692458    -0.78800
O114        O  0.27343755  0.72174946  0.27180794    -0.89100
C115        C  0.21108098  0.81602966  0.33264865     0.84800
O116        O  0.25353148  0.69632982  0.33745938    -0.67300
O117        O  0.25159538  0.79288714  0.45634243    -0.86600
C118        C  0.22876373  0.70853205  0.33182936     0.85700
C119        C  0.26495479  0.74551650  0.25678837     1.07200
H120        H  0.22731619  0.75852809  0.38928659     0.39000
O121        O  0.24451077  0.76943757  0.38371309    -1.09200
O122        O  0.30400493  0.77862667  0.40543334    -0.65900
Ni123      Ni  0.27792289  0.74621192  0.39808146     1.26300
O124        O  0.22611226  0.73566147  0.32513273    -0.66100
O125        O  0.26781281  0.74695957  0.45091380    -0.78400
C126        C  0.31854146  0.69732179  0.39527107     0.85100
O127        O  0.31084237  0.72109554  0.41134207    -0.65600
Ni128      Ni  0.23927118  0.80687651  0.40714090     1.27400
Ni129      Ni  0.25178432  0.76869059  0.33031621     1.26100
H130        H  0.30325678  0.75754238  0.33901888     0.39600
O131        O  0.29040434  0.68694817  0.86278769    -0.80300
O132        O  0.19752631  0.78576591  0.82099282    -0.65000
O133        O  0.26789789  0.74263484  0.84183748    -1.11600
C134        C  0.24189502  0.76341927  0.97070804     1.06500
O135        O  0.20918883  0.82089879  0.86098068    -0.78200
O136        O  0.25724305  0.81633880  0.90584741    -0.65800
Ni137      Ni  0.27481218  0.70566584  0.81780849     1.34900
C138        C  0.28262628  0.80492682  0.90258295     0.85300
O139        O  0.23858549  0.76275885  0.77656769    -0.78800
O140        O  0.26191553  0.71995607  0.76886541    -0.89100
C141        C  0.19454344  0.81165361  0.83281351     0.84800
O142        O  0.23741069  0.69048654  0.82921648    -0.67300
O143        O  0.22658635  0.78457702  0.95752320    -0.86600
C144        C  0.21225015  0.70252801  0.82977110     0.85700
C145        C  0.24952667  0.74285494  0.75563363     1.07200
H146        H  0.21138757  0.75165154  0.89060554     0.39000
O147        O  0.22737498  0.76426717  0.88394145    -1.09200
O148        O  0.28686164  0.77774119  0.89799915    -0.65900
Ni149      Ni  0.26283677  0.74380333  0.89590264     1.26300
O150        O  0.20797986  0.72986459  0.82707685    -0.66100
O151        O  0.25675809  0.74588645  0.94985335    -0.78400
C152        C  0.30316714  0.69632883  0.89240557     0.85100
O153        O  0.29779371  0.72154223  0.90574023    -0.65600
Ni154      Ni  0.21887393  0.80086408  0.90793271     1.27400
Ni155      Ni  0.23240935  0.76355623  0.83017238     1.26100
H156        H  0.28399942  0.75478023  0.83489277     0.39600
O157        O  0.57611726  0.01877305  0.98048851    -0.80300
O158        O  0.46982567  0.94550167  0.93757210    -0.65000
O159        O  0.51920146  0.01002677  0.95576654    -1.11600
C160        C  0.49547483  0.99103597  0.08508056     1.06500
O161        O  0.43703200  0.96694549  0.97435798    -0.78200
O162        O  0.44486366  0.01287029  0.02025047    -0.65800
Ni163      Ni  0.55651664  0.01273089  0.93288930     1.34900
C164        C  0.45859510  0.03624455  0.01574359     0.85300
O165        O  0.49921514  0.98084676  0.89059132    -0.78800
O166        O  0.53970381  0.00712498  0.88350741    -0.89100
C167        C  0.44399867  0.94714807  0.95060962     0.84800
O168        O  0.56835997  0.97284016  0.93507144    -0.67300
O169        O  0.47311047  0.97815483  0.07198840    -0.86600
C170        C  0.55505122  0.94917461  0.93946802     0.85700
C171        C  0.51817544  0.99332413  0.86988015     1.07200
H172        H  0.50456626  0.95780309  0.00758699     0.39000
O173        O  0.49374611  0.97490828  0.99936801    -1.09200
O174        O  0.48611991  0.03669278  0.01072502    -0.65900
Ni175      Ni  0.51731750  0.00755708  0.01001677     1.26300
O176        O  0.52753829  0.94821564  0.94487653    -0.66100
O177        O  0.51445507  0.00334680  0.06431051    -0.78400
C178        C  0.56905711  0.03801083  0.00476089     0.85100
O179        O  0.54315116  0.03926916  0.01753680    -0.65600
Ni180      Ni  0.45631442  0.97279796  0.02230587     1.27400
Ni181      Ni  0.49589662  0.97714072  0.94500993     1.26100
H182        H  0.50816827  0.02704211  0.94769741     0.39600
O183        O  0.57631620  0.95296864  0.47939258    -0.80300
O184        O  0.47710584  0.04111587  0.51398085    -0.65000
O185        O  0.51899069  0.96994007  0.49945086    -1.11600
C186        C  0.50403713  0.99058896  0.36887938     1.06500
O187        O  0.44342095  0.02922372  0.47209216    -0.78200
O188        O  0.44771248  0.97946845  0.43227139    -0.65800
Ni189      Ni  0.55463679  0.96177554  0.52549174     1.34900
C190        C  0.45818861  0.95413194  0.43792299     0.85300
O191        O  0.49862220  0.00096292  0.56244248    -0.78800
O192        O  0.53541995  0.96869902  0.57340291    -0.89100
C193        C  0.45209104  0.04513783  0.49934422     0.84800
O194        O  0.57049354  0.00020446  0.52698272    -0.67300
O195        O  0.48228443  0.00633062  0.37947326    -0.86600
C196        C  0.55956972  0.02549255  0.52142597     0.85700
C197        C  0.51410954  0.98490358  0.58456162     1.07200
H198        H  0.51320627  0.02414734  0.44719013     0.39000
O199        O  0.49999656  0.00891795  0.45402728    -1.09200
O200        O  0.48546492  0.94904389  0.44244714    -0.65900
Ni201      Ni  0.52000992  0.97278926  0.44559195     1.26300
O202        O  0.53299837  0.02976781  0.51208958    -0.66100
O203        O  0.52086203  0.97676821  0.39158136    -0.78400
C204        C  0.56837143  0.93677311  0.45192444     0.85100
O205        O  0.54222125  0.93777189  0.44008412    -0.65600
Ni206      Ni  0.46448179  0.01691027  0.42725571     1.27400
Ni207      Ni  0.49892449  0.00578582  0.50815904     1.26100
H208        H  0.50587737  0.95465132  0.50639496     0.39600
O209        O  0.80156506  0.80710127  0.36755508    -0.80300
O210        O  0.71506020  0.70689587  0.40941165    -0.65000
O211        O  0.78323813  0.75111598  0.39000769    -1.11600
C212        C  0.75934583  0.72947541  0.26067512     1.06500
O213        O  0.73134567  0.67257918  0.37095971    -0.78200
O214        O  0.77832123  0.67705114  0.32531727    -0.65800
Ni215      Ni  0.78718218  0.78867512  0.41300578     1.34900
C216        C  0.80279967  0.68924536  0.32852862     0.85300
O217        O  0.75463846  0.73088925  0.45471457    -0.78800
O218        O  0.77485078  0.77449639  0.46199563    -0.89100
C219        C  0.71283396  0.68172498  0.39515381     0.84800
O220        O  0.74887260  0.80293838  0.40090837    -0.67300
O221        O  0.74544290  0.70801887  0.27415655    -0.86600
C222        C  0.72450613  0.79030877  0.40136835     0.85700
C223        C  0.76434615  0.75122127  0.47544945     1.07200
H224        H  0.72800212  0.74072588  0.33999439     0.39000
O225        O  0.74456010  0.72859522  0.34719169    -1.09200
O226        O  0.80541679  0.71634577  0.33414310    -0.65900
Ni227      Ni  0.77886785  0.74941698  0.33590865     1.26300
O228        O  0.72227275  0.76283581  0.40365236    -0.66100
O229        O  0.77308113  0.74716462  0.28183708    -0.78400
C230        C  0.81610796  0.79705307  0.33953325     0.85100
O231        O  0.81264861  0.77160381  0.32687648    -0.65600
Ni232      Ni  0.73900405  0.69170202  0.32359013     1.27400
Ni233      Ni  0.74889604  0.72964562  0.40110913     1.26100
H234        H  0.80004189  0.73948173  0.39761320     0.39600
O235        O  0.78139573  0.80976161  0.86625437    -0.80300
O236        O  0.69931934  0.70892509  0.91032984    -0.65000
O237        O  0.76720515  0.75272028  0.88776369    -1.11600
C238        C  0.74558596  0.73290670  0.75992869     1.06500
O239        O  0.70593238  0.67546717  0.86532184    -0.78200
O240        O  0.76057295  0.68000138  0.83424878    -0.65800
Ni241      Ni  0.77359027  0.78913266  0.91266338     1.34900
C242        C  0.78520831  0.69213966  0.83132412     0.85300
O243        O  0.74042078  0.73205617  0.95344008    -0.78800
O244        O  0.76710734  0.77209895  0.96182135    -0.89100
C245        C  0.69395317  0.68423879  0.89608768     0.84800
O246        O  0.73456262  0.80420881  0.91006434    -0.67300
O247        O  0.73632974  0.70895567  0.77302150    -0.86600
C248        C  0.70986901  0.79255956  0.90649952     0.85700
C249        C  0.75419494  0.74978018  0.97436200     1.07200
H250        H  0.70999043  0.74331990  0.83962474     0.39000
O251        O  0.72697372  0.73148248  0.84593403    -1.09200
O252        O  0.78743009  0.71966260  0.82851366    -0.65900
Ni253      Ni  0.76119702  0.75324398  0.83418159     1.26300
O254        O  0.70676088  0.76516108  0.90376324    -0.66100
O255        O  0.75362905  0.75366781  0.78103036    -0.78400
C256        C  0.79783662  0.80164496  0.83918358     0.85100
O257        O  0.79498178  0.77646300  0.82485615    -0.65600
Ni258      Ni  0.72248390  0.69457149  0.82128393     1.27400
Ni259      Ni  0.73295133  0.73157592  0.89989025     1.26100
H260        H  0.78393744  0.74037050  0.89352927     0.39600
O261        O  0.73273060  0.17846103  0.11517603    -0.80300
O262        O  0.81615367  0.27571419  0.15855357    -0.65000
O263        O  0.74623836  0.23477173  0.13894388    -1.11600
C264        C  0.76331416  0.25883506  0.01118424     1.06500
O265        O  0.80438614  0.31166667  0.11971105    -0.78200
O266        O  0.75084573  0.30883599  0.08764536    -0.65800
Ni267      Ni  0.73938225  0.19825347  0.16236220     1.34900
C268        C  0.72625151  0.29669439  0.08737987     0.85300
O269        O  0.77638677  0.25187777  0.20435252    -0.78800
O270        O  0.74492121  0.21525639  0.21132022    -0.89100
C271        C  0.82052838  0.30097466  0.14591731     0.84800
O272        O  0.77831529  0.18292108  0.16186066    -0.67300
O273        O  0.77467402  0.28161202  0.02507153    -0.86600
C274        C  0.80289217  0.19383727  0.15490794     0.85700
C275        C  0.76013506  0.23581680  0.22459469     1.07200
H276        H  0.80120761  0.24514715  0.08759575     0.39000
O277        O  0.78465460  0.25683014  0.09593762    -1.09200
O278        O  0.72374443  0.26925574  0.08373695    -0.65900
Ni279      Ni  0.75001077  0.23577834  0.08505516     1.26300
O280        O  0.80651127  0.22076919  0.14951390    -0.66100
O281        O  0.75497348  0.23761675  0.03126352    -0.78400
C282        C  0.71511848  0.18692115  0.08946431     0.85100
O283        O  0.71618116  0.21267581  0.07684177    -0.65600
Ni284      Ni  0.78866253  0.29448757  0.07400504     1.27400
Ni285      Ni  0.78130325  0.25465832  0.15010161     1.26100
H286        H  0.73016977  0.24743265  0.14644347     0.39600
O287        O  0.70887393  0.18034917  0.62114790    -0.80300
O288        O  0.80086920  0.27601538  0.65473403    -0.65000
O289        O  0.72943932  0.23605314  0.63991169    -1.11600
C290        C  0.75035012  0.25402928  0.50958838     1.06500
O291        O  0.78596991  0.31119576  0.61647895    -0.78200
O292        O  0.73684705  0.30841101  0.57614659    -0.65800
Ni293      Ni  0.72231990  0.20053237  0.66599452     1.34900
C294        C  0.71182986  0.29770197  0.58063942     0.85300
O295        O  0.76178642  0.25535880  0.70266582    -0.78800
O296        O  0.73405689  0.21699215  0.71407799    -0.89100
C297        C  0.80246124  0.30190523  0.64290949     0.84800
O298        O  0.75995880  0.18306597  0.65891686    -0.67300
O299        O  0.76514360  0.27522719  0.52214682    -0.86600
C300        C  0.78519634  0.19308928  0.65365095     0.85700
C301        C  0.74923077  0.23835000  0.72548102     1.07200
H302        H  0.78362725  0.24212186  0.58690318     0.39000
O303        O  0.76796697  0.25518140  0.59470317    -1.09200
O304        O  0.70758965  0.27059128  0.58417875    -0.65900
Ni305      Ni  0.73207397  0.23589466  0.58553828     1.26300
O306        O  0.78978943  0.22020718  0.65031336    -0.66100
O307        O  0.73635880  0.23683370  0.53107891    -0.78400
C308        C  0.69334174  0.18941682  0.59344101     0.85100
O309        O  0.69679667  0.21441913  0.57898542    -0.65600
Ni310      Ni  0.77488170  0.29150493  0.57056736     1.27400
Ni311      Ni  0.76552674  0.25518178  0.64866152     1.26100
H312        H  0.71395488  0.24939286  0.64749495     0.39600
O313        O  0.43591587  0.53259730  0.03312269    -0.80300
O314        O  0.53604171  0.44098497  0.06078940    -0.65000
O315        O  0.49332881  0.51305980  0.05127454    -1.11600
C316        C  0.50783451  0.49520200  0.91938621     1.06500
O317        O  0.56878625  0.45908067  0.02263768    -0.78200
O318        O  0.56357558  0.50752824  0.98014727    -0.65800
Ni319      Ni  0.45778337  0.52038274  0.07784972     1.34900
C320        C  0.55289193  0.53271787  0.98683376     0.85300
O321        O  0.51400770  0.47903167  0.11214013    -0.78800
O322        O  0.47657821  0.51002104  0.12506961    -0.89100
C323        C  0.56088365  0.43906780  0.04483251     0.84800
O324        O  0.44163097  0.48242781  0.07373702    -0.67300
O325        O  0.52926799  0.47879720  0.92964274    -0.86600
C326        C  0.45217083  0.45705423  0.06754338     0.85700
C327        C  0.49779198  0.49331826  0.13529684     1.07200
H328        H  0.49930752  0.46085062  0.99534463     0.39000
O329        O  0.51231478  0.47593089  0.00346768    -1.09200
O330        O  0.52608259  0.53658616  0.99507730    -0.65900
Ni331      Ni  0.49215466  0.51206508  0.99706866     1.26300
O332        O  0.47909025  0.45268160  0.05989670    -0.66100
O333        O  0.49160518  0.50942484  0.94259983    -0.78400
C334        C  0.44424743  0.54911326  0.00643964     0.85100
O335        O  0.46993227  0.54727237  0.99339994    -0.65600
Ni336      Ni  0.54793467  0.46940154  0.97705757     1.27400
Ni337      Ni  0.51350533  0.47663725  0.05774031     1.26100
H338        H  0.50651360  0.52806746  0.05919647     0.39600
O339        O  0.43897994  0.46215694  0.53215143    -0.80300
O340        O  0.53736241  0.54367221  0.48538259    -0.65000
O341        O  0.49457577  0.47583648  0.50717866    -1.11600
C342        C  0.51807955  0.50032832  0.63512264     1.06500
O343        O  0.57301513  0.52851134  0.52312135    -0.78200
O344        O  0.56962711  0.48225145  0.56912107    -0.65800
Ni345      Ni  0.45764494  0.46923988  0.48414889     1.34900
C346        C  0.55805183  0.45749758  0.56657053     0.85300
O347        O  0.51249846  0.50387923  0.44124188    -0.78800
O348        O  0.47401906  0.47479180  0.43438307    -0.89100
C349        C  0.56385421  0.54420405  0.49580816     0.84800
O350        O  0.44208586  0.50824497  0.48437710    -0.67300
O351        O  0.53889202  0.51476245  0.62098416    -0.86600
C352        C  0.45348467  0.53308475  0.48719309     0.85700
C353        C  0.49537066  0.48891508  0.42076956     1.07200
H354        H  0.50452026  0.53110918  0.55628387     0.39000
O355        O  0.51687200  0.51479540  0.54889615    -1.09200
O356        O  0.53065376  0.45428689  0.56262920    -0.65900
Ni357      Ni  0.49672463  0.48020294  0.56118353     1.26300
O358        O  0.48082366  0.53619804  0.49258993    -0.66100
O359        O  0.49982067  0.48614532  0.61510330    -0.78400
C360        C  0.44872923  0.44404875  0.55650833     0.85100
O361        O  0.47429464  0.44624681  0.57009583    -0.65600
Ni362      Ni  0.55428068  0.52109395  0.57102747     1.27400
Ni363      Ni  0.51478497  0.51019859  0.49498273     1.26100
H364        H  0.50700896  0.45957847  0.49979832     0.39600
O365        O  0.08148103  0.54356993  0.25838533    -0.80300
O366        O  0.99068952  0.45070368  0.23085393    -0.65000
O367        O  0.02567287  0.52435935  0.24348087    -1.11600
C368        C  0.01339577  0.50475112  0.37428630     1.06500
O369        O  0.95588505  0.46237164  0.27121524    -0.78200
O370        O  0.95691344  0.51430877  0.30702476    -0.65800
Ni371      Ni  0.05881897  0.53446842  0.21418984     1.34900
C372        C  0.96657494  0.53996398  0.30470512     0.85300
O373        O  0.00635574  0.49149900  0.18165217    -0.78800
O374        O  0.03797424  0.52681794  0.16802837    -0.89100
C375        C  0.96603827  0.44577519  0.24522106     0.84800
O376        O  0.07809201  0.49717230  0.21137682    -0.67300
O377        O  0.99158938  0.49022243  0.36301063    -0.86600
C378        C  0.07035530  0.47158191  0.21935210     0.85700
C379        C  0.01837971  0.50885836  0.15853214     1.07200
H380        H  0.02485987  0.46975706  0.29684035     0.39000
O381        O  0.01100569  0.48493798  0.28982393    -1.09200
O382        O  0.99375743  0.54478855  0.30276135    -0.65900
Ni383      Ni  0.02920792  0.52155291  0.29763235     1.26300
O384        O  0.04500374  0.46592097  0.23153493    -0.66100
O385        O  0.03121973  0.51722571  0.35200622    -0.78400
C386        C  0.07306390  0.56170722  0.28346154     0.85100
O387        O  0.04966334  0.55752756  0.30187890    -0.65600
Ni388      Ni  0.97544432  0.47732413  0.31562323     1.27400
Ni389      Ni  0.00871298  0.48746674  0.23579248     1.26100
H390        H  0.01077110  0.53879373  0.23749340     0.39600
O391        O  0.06634228  0.53430211  0.77580962    -0.80300
O392        O  0.96803075  0.45302324  0.72629524    -0.65000
O393        O  0.01130076  0.52113001  0.74757435    -1.11600
C394        C  0.98865581  0.49824746  0.87601380     1.06500
O395        O  0.93287098  0.46685034  0.76577561    -0.78200
O396        O  0.93565552  0.51426945  0.81140603    -0.65800
Ni397      Ni  0.04937338  0.52578773  0.72718418     1.33300
C398        C  0.94654395  0.53923103  0.80733128     0.85300
O399        O  0.99418700  0.49222597  0.68137853    -0.78800
O400        O  0.03528883  0.51774673  0.67689733    -0.89100
C401        C  0.94283508  0.44971549  0.74034127     0.84800
O402        O  0.06404344  0.48694079  0.73167289    -0.67300
O403        O  0.96808670  0.48280827  0.86278596    -0.86600
C404        C  0.05153360  0.46267202  0.73212028     0.85700
C405        C  0.01387245  0.50452899  0.66171932     1.07200
H406        H  0.00147187  0.46709728  0.79736539     0.39000
O407        O  0.98863628  0.48297161  0.78977068    -1.09200
O408        O  0.97371079  0.54320326  0.80165447    -0.65900
Ni409      Ni  0.00838245  0.51807087  0.80152624     1.26300
O410        O  0.02397033  0.46018034  0.73399326    -0.66100
O411        O  0.00525830  0.51340159  0.85531165    -0.78400
C412        C  0.05678541  0.55372880  0.79852076     0.85100
O413        O  0.03061678  0.55252294  0.81023701    -0.65600
Ni414      Ni  0.95193596  0.47567600  0.81317852     1.27400
Ni415      Ni  0.99070368  0.48676683  0.73549362     1.26100
H416        H  0.99955297  0.53757633  0.73916790     0.39600
C417        C  0.00372599  0.52857778  0.47648364    -0.11300
C418        C  0.01657396  0.50501371  0.49598694     0.11300
C419        C  0.02991742  0.48193090  0.47511900    -0.03100
C420        C  0.02977088  0.48328125  0.43513948    -0.05900
C421        C  0.01721356  0.50703296  0.41580210    -0.16600
C422        C  0.00428542  0.53021205  0.43661681     0.02300
C423        C  0.01574097  0.50527164  0.53829335     0.12200
C424        C  0.04397175  0.45589021  0.49491969     0.62800
H425        H  0.03883530  0.46542741  0.41854738     0.12200
C426        C  0.99111850  0.55644145  0.41648710     0.55000
H427        H  0.99319369  0.54574405  0.49286720     0.08000
C428        C  0.03385946  0.52350576  0.55997629    -0.05800
C429        C  0.03160958  0.52297387  0.59973508    -0.06500
C430        C  0.01273673  0.50411673  0.61899795    -0.16100
C431        C  0.99501452  0.48529329  0.59688656    -0.01700
C432        C  0.99626180  0.48701978  0.55689704    -0.09200
C433        C  0.05609520  0.54296942  0.54130151     0.65000
H434        H  0.04511465  0.53742355  0.61610916     0.10500
C435        C  0.97529520  0.46301628  0.61470425     0.63400
H436        H  0.98222514  0.47372252  0.53954940     0.07900
F437        F  0.98058078  0.57718638  0.44177370    -0.19600
F438        F  0.96826065  0.54798913  0.39350923    -0.15800
F439        F  0.01232667  0.56905762  0.39448445    -0.19300
F440        F  0.02292719  0.44026447  0.51354305    -0.22700
F441        F  0.06446405  0.46512482  0.52095789    -0.24200
F442        F  0.05793630  0.43734972  0.46947619    -0.18200
F443        F  0.95370347  0.47713144  0.63542805    -0.20600
F444        F  0.99154154  0.44467378  0.63801971    -0.21800
F445        F  0.96175696  0.44594327  0.58770720    -0.19000
F446        F  0.07285076  0.55747379  0.56778294    -0.19100
F447        F  0.04208952  0.56364213  0.51905529    -0.22900
F448        F  0.07475097  0.52636320  0.51887643    -0.24500
C449        C  0.02236186  0.50027845  0.97520380    -0.11300
C450        C  0.99718674  0.50067624  0.99771583     0.11300
C451        C  0.96930182  0.50048836  0.98047490    -0.03100
C452        C  0.96761068  0.49891203  0.94069452    -0.05900
C453        C  0.99276570  0.49899012  0.91782395    -0.16600
C454        C  0.02075079  0.49950113  0.93533750     0.02300
C455        C  0.00084693  0.50190822  0.03942899     0.12200
C456        C  0.94153332  0.50255400  0.00400143     0.62800
H457        H  0.94642191  0.49834014  0.92706144     0.12200
C458        C  0.04885429  0.49851137  0.91243634     0.55000
H459        H  0.04339218  0.50085977  0.98931119     0.08000
C460        C  0.00738712  0.47674386  0.06109944    -0.05800
C461        C  0.01202108  0.47986767  0.10032799    -0.06500
C462        C  0.01020067  0.50717082  0.11809325    -0.16100
C463        C  0.00185822  0.53205685  0.09673073    -0.01700
C464        C  0.99803236  0.52903943  0.05735062    -0.09200
C465        C  0.01011115  0.44689373  0.04274610     0.65000
H466        H  0.01815673  0.46110282  0.11727919     0.10500
C467        C  0.99557008  0.56126316  0.11556478     0.63400
H468        H  0.99276869  0.54788860  0.04009689     0.07900
F469        F  0.07317310  0.49429175  0.93534414    -0.19600
F470        F  0.05209555  0.52448081  0.89337519    -0.15800
F471        F  0.04822762  0.47582473  0.88658301    -0.19300
F472        F  0.93997252  0.52918254  0.02224286    -0.22700
F473        F  0.94136895  0.48072728  0.03087332    -0.24200
F474        F  0.91673984  0.49997868  0.98178362    -0.18200
F475        F  0.02097122  0.57265370  0.13007351    -0.20600
F476        F  0.97572016  0.55777715  0.14466896    -0.21800
F477        F  0.98370930  0.58122861  0.09022184    -0.19000
F478        F  0.01371386  0.42513041  0.06952018    -0.19100
F479        F  0.03399582  0.44597791  0.01884657    -0.22900
F480        F  0.98525181  0.44105442  0.02196441    -0.24500
C481        C  0.49777868  0.52413982  0.81881115    -0.11300
C482        C  0.50101213  0.49828454  0.79792878     0.11300
C483        C  0.50383979  0.47138461  0.81712478    -0.03100
C484        C  0.50392745  0.47138355  0.85696811    -0.05900
C485        C  0.50204441  0.49728991  0.87805369    -0.16600
C486        C  0.49839148  0.52420597  0.85881239     0.02300
C487        C  0.50459079  0.50017624  0.75616580     0.12200
C488        C  0.50777806  0.44287207  0.79564631     0.62800
H489        H  0.50672195  0.45106259  0.87213038     0.12200
C490        C  0.49726773  0.55294444  0.88009831     0.55000
H491        H  0.49609018  0.54442636  0.80337238     0.08000
C492        C  0.48063562  0.50266542  0.73093996    -0.05800
C493        C  0.48605638  0.50217457  0.69163644    -0.06500
C494        C  0.51459820  0.50045969  0.67704131    -0.16100
C495        C  0.53870986  0.49894630  0.70264519    -0.01700
C496        C  0.53307272  0.49893528  0.74184528    -0.09200
C497        C  0.44966387  0.50680123  0.74546914     0.65000
H498        H  0.46795588  0.50395559  0.67187572     0.10500
C499        C  0.57030162  0.49704384  0.68935326     0.63400
H500        H  0.55098376  0.49781528  0.76197885     0.07900
F501        F  0.47283136  0.55432206  0.90306801    -0.19600
F502        F  0.49587012  0.57647383  0.85570243    -0.15800
F503        F  0.52215931  0.55544539  0.90207638    -0.19300
F504        F  0.53394851  0.44265698  0.77618868    -0.22700
F505        F  0.48512909  0.43952613  0.77009372    -0.24200
F506        F  0.50810008  0.41917608  0.81979883    -0.18200
F507        F  0.57831642  0.52343450  0.67436049    -0.20600
F508        F  0.57374349  0.47560240  0.66212260    -0.21800
F509        F  0.58930298  0.49037726  0.71887786    -0.19000
F510        F  0.42936674  0.50590042  0.71630666    -0.19100
F511        F  0.44697937  0.53356283  0.76321663    -0.22900
F512        F  0.44311942  0.48521888  0.77111485    -0.24500
C513        C  0.50497217  0.46291034  0.23530723    -0.11300
C514        C  0.50580770  0.48868242  0.25659188     0.11300
C515        C  0.50717847  0.51577046  0.23778792    -0.03100
C516        C  0.50555991  0.51623761  0.19791626    -0.05900
C517        C  0.50330457  0.49055595  0.17656950    -0.16600
C518        C  0.50349548  0.46333425  0.19537588     0.02300
C519        C  0.50323606  0.48690034  0.29855048     0.12200
C520        C  0.50989632  0.54402084  0.25986378     0.62800
H521        H  0.50559852  0.53678930  0.18299088     0.12200
C522        C  0.50095348  0.43498569  0.17356142     0.55000
H523        H  0.50455424  0.44245654  0.25042117     0.08000
C524        C  0.47576942  0.48424864  0.31633345    -0.05800
C525        C  0.47444528  0.48500748  0.35615029    -0.06500
C526        C  0.49955358  0.48824981  0.37877655    -0.16100
C527        C  0.52728760  0.49009517  0.36075143    -0.01700
C528        C  0.52852041  0.48906975  0.32077011    -0.09200
C529        C  0.44792026  0.48077702  0.29329472     0.65000
H530        H  0.45345172  0.48345463  0.36997806     0.10500
C531        C  0.55556178  0.49294238  0.38306846     0.63400
H532        H  0.54926289  0.49066957  0.30630337     0.07900
F533        F  0.47657141  0.43601667  0.15030173    -0.19600
F534        F  0.49837545  0.41139722  0.19754164    -0.15800
F535        F  0.52561621  0.43052096  0.15167904    -0.19300
F536        F  0.53574974  0.54363664  0.28022202    -0.22700
F537        F  0.48674965  0.54739717  0.28472081    -0.24200
F538        F  0.50999328  0.56795202  0.23614196    -0.18200
F539        F  0.55767280  0.47134017  0.41023104    -0.20600
F540        F  0.55627289  0.51991736  0.40044258    -0.21800
F541        F  0.57988035  0.49037158  0.35992222    -0.19000
F542        F  0.42341439  0.47994819  0.31617404    -0.19100
F543        F  0.44942525  0.45511279  0.27283057    -0.22900
F544        F  0.44434502  0.50380856  0.26848112    -0.24500
C545        C  0.89735788  0.38169724  0.73590533    -0.11300
C546        C  0.88825978  0.38198667  0.69793583     0.11300
C547        C  0.89781242  0.40418161  0.67332256    -0.03100
C548        C  0.91582281  0.42592640  0.68813644    -0.05900
C549        C  0.92438373  0.42598486  0.72634734    -0.16600
C550        C  0.91565155  0.40321539  0.75051765     0.02300
C551        C  0.86668369  0.36023760  0.68569944     0.12200
C552        C  0.88898340  0.40489575  0.63170620     0.62800
H553        H  0.92278221  0.44345559  0.67021752     0.12200
C554        C  0.92599540  0.40144250  0.79141419     0.55000
H555        H  0.88945998  0.36473700  0.75425713     0.08000
C556        C  0.87451811  0.33103581  0.67700241    -0.05800
C557        C  0.85263562  0.31233029  0.66409792    -0.06500
C558        C  0.82353120  0.32198266  0.66007388    -0.16100
C559        C  0.81547904  0.35074964  0.67100340    -0.01700
C560        C  0.83737141  0.36936542  0.68374982    -0.09200
C561        C  0.90563421  0.31959491  0.68175801     0.65000
H562        H  0.85816896  0.29008045  0.65642008     0.10500
C563        C  0.78392200  0.36168297  0.67020157     0.63400
H564        H  0.83187850  0.39155100  0.69180079     0.07900
F565        F  0.91795966  0.37572318  0.80842580    -0.19600
F566        F  0.91398265  0.42427492  0.81207513    -0.15800
F567        F  0.95613692  0.40282007  0.79274542    -0.19300
F568        F  0.85920424  0.40973629  0.62841369    -0.22700
F569        F  0.89634103  0.37868114  0.61460143    -0.24200
F570        F  0.90286100  0.42672351  0.61218336    -0.18200
F571        F  0.78063577  0.38834534  0.68819524    -0.20600
F572        F  0.76630591  0.34215633  0.68861626    -0.21800
F573        F  0.77451212  0.36497648  0.63312419    -0.19000
F574        F  0.90912866  0.29174115  0.66721973    -0.19100
F575        F  0.91271850  0.31881787  0.71990722    -0.22900
F576        F  0.92487463  0.33736556  0.66310766    -0.24500
C577        C  0.59467248  0.38486298  0.59367835    -0.11300
C578        C  0.62079424  0.38629913  0.57317706     0.11300
C579        C  0.62546954  0.41020183  0.54888268    -0.03100
C580        C  0.60400537  0.43250900  0.54693066    -0.05900
C581        C  0.57802189  0.43154125  0.56807158    -0.16600
C582        C  0.57329289  0.40733720  0.59216265     0.02300
C583        C  0.64294461  0.36241332  0.57769030     0.12200
C584        C  0.65295021  0.41201453  0.52495535     0.62800
H585        H  0.60738054  0.45108789  0.52875154     0.12200
C586        C  0.54660168  0.40561743  0.61749217     0.55000
H587        H  0.59149470  0.36610145  0.61159229     0.08000
C588        C  0.66335526  0.36195617  0.60804619    -0.05800
C589        C  0.68504901  0.33978596  0.60882393    -0.06500
C590        C  0.68648754  0.31811086  0.58070907    -0.16100
C591        C  0.66549737  0.31803866  0.55116514    -0.01700
C592        C  0.64374599  0.34010263  0.55044649    -0.09200
C593        C  0.66261843  0.38514284  0.63890224     0.65000
H594        H  0.70149170  0.33950525  0.63099829     0.10500
C595        C  0.66723896  0.29571480  0.51938301     0.63400
H596        H  0.62767279  0.34069999  0.52784128     0.07900
F597        F  0.54400106  0.43034911  0.63959914    -0.19600
F598        F  0.54819499  0.38191735  0.64161205    -0.15800
F599        F  0.52185065  0.40305767  0.59553739    -0.19300
F600        F  0.65383426  0.38937311  0.49908111    -0.22700
F601        F  0.67749400  0.41023613  0.54781218    -0.24200
F602        F  0.65393178  0.43784262  0.50497071    -0.18200
F603        F  0.64545443  0.30010441  0.49260280    -0.20600
F604        F  0.66437162  0.26806503  0.53399234    -0.21800
F605        F  0.69390735  0.29754517  0.50127508    -0.19000
F606        F  0.68354598  0.37984313  0.66659970    -0.19100
F607        F  0.63562378  0.38586830  0.65637275    -0.22900
F608        F  0.66773445  0.41208211  0.62328485    -0.24500
C609        C  0.74080938  0.27277886  0.90859980    -0.11300
C610        C  0.75763331  0.25145949  0.88967775     0.11300
C611        C  0.77682289  0.23306725  0.91072498    -0.03100
C612        C  0.77726625  0.23558340  0.95054720    -0.05900
C613        C  0.76039824  0.25680214  0.96948007    -0.16600
C614        C  0.74206952  0.27601370  0.94835792     0.02300
C615        C  0.75465049  0.24881145  0.84773270     0.12200
C616        C  0.79724137  0.21140667  0.89112917     0.62800
H617        H  0.79149350  0.22152233  0.96727094     0.12200
C618        C  0.72344055  0.29929500  0.96782281     0.55000
H619        H  0.72666289  0.28688471  0.89183584     0.08000
C620        C  0.73196633  0.23285994  0.83082913    -0.05800
C621        C  0.73095391  0.23050203  0.79103074    -0.06500
C622        C  0.75190081  0.24334717  0.76745235    -0.16100
C623        C  0.77471725  0.25952370  0.78477037    -0.01700
C624        C  0.77523764  0.26224793  0.82467351    -0.09200
C625        C  0.70877869  0.21852702  0.85478262     0.65000
H626        H  0.71342243  0.21855333  0.77801740     0.10500
C627        C  0.79902788  0.27326947  0.76202638     0.63400
H628        H  0.79209820  0.27464989  0.83850012     0.07900
F629        F  0.70620051  0.31469090  0.94220572    -0.19600
F630        F  0.74109787  0.31887928  0.98627878    -0.15800
F631        F  0.70526355  0.28651342  0.99393735    -0.19300
F632        F  0.81657260  0.22611365  0.86844099    -0.22700
F633        F  0.78144929  0.19252368  0.86888165    -0.24200
F634        F  0.81339195  0.19508875  0.91695971    -0.18200
F635        F  0.78768892  0.29557456  0.73989877    -0.20600
F636        F  0.81252247  0.25251282  0.73919756    -0.21800
F637        F  0.82029515  0.28492688  0.78521838    -0.19000
F638        F  0.69017313  0.20195769  0.83295223    -0.19100
F639        F  0.69221771  0.23964495  0.87321970    -0.22900
F640        F  0.72175632  0.20042920  0.88145487    -0.24500
C641        C  0.73170167  0.24629414  0.32484970    -0.11300
C642        C  0.75769626  0.24479663  0.34579543     0.11300
C643        C  0.78477065  0.24113142  0.32681505    -0.03100
C644        C  0.78483879  0.23968653  0.28687213    -0.05900
C645        C  0.75873179  0.24074200  0.26596474    -0.16600
C646        C  0.73166703  0.24441264  0.28508436     0.02300
C647        C  0.75549025  0.24737912  0.38766876     0.12200
C648        C  0.81322117  0.23744758  0.34865090     0.62800
H649        H  0.80518414  0.23635245  0.27170257     0.12200
C650        C  0.70280830  0.24653768  0.26375275     0.55000
H651        H  0.71129127  0.24875499  0.34012576     0.08000
C652        C  0.75294481  0.27477846  0.40571420    -0.05800
C653        C  0.75048683  0.27570861  0.44543632    -0.06500
C654        C  0.74977094  0.25025843  0.46755853    -0.16100
C655        C  0.75091662  0.22275340  0.44909779    -0.01700
C656        C  0.75391722  0.22189029  0.40925660    -0.09200
C657        C  0.75276897  0.30289065  0.38303501     0.65000
H658        H  0.74909728  0.29658603  0.45966555     0.10500
C659        C  0.74969009  0.19446193  0.47107826     0.63400
H660        H  0.75500270  0.20123818  0.39443916     0.07900
F661        F  0.68021366  0.25592366  0.28709297    -0.19600
F662        F  0.69574217  0.21955773  0.24943720    -0.15800
F663        F  0.70485182  0.26613840  0.23420814    -0.19300
F664        F  0.81285213  0.21174404  0.36885538    -0.22700
F665        F  0.81677074  0.26031005  0.37365550    -0.24200
F666        F  0.83714393  0.23649209  0.32466907    -0.18200
F667        F  0.72290292  0.19246316  0.48883119    -0.20600
F668        F  0.77175910  0.19343440  0.49796175    -0.21800
F669        F  0.75312147  0.17044471  0.44762151    -0.19000
F670        F  0.75059846  0.32716198  0.40625276    -0.19100
F671        F  0.72921023  0.30359824  0.35842458    -0.22900
F672        F  0.77823062  0.30478885  0.36228387    -0.24500
C673        C  0.93713926  0.37881537  0.19212351    -0.11300
C674        C  0.90821686  0.37894578  0.20496994     0.11300
C675        C  0.89904663  0.39935512  0.23265862    -0.03100
C676        C  0.91863923  0.42064209  0.24442901    -0.05900
C677        C  0.94749466  0.42166008  0.23064798    -0.16600
C678        C  0.95730273  0.39955661  0.20480549     0.02300
C679        C  0.88751906  0.35801462  0.18823809     0.12200
C680        C  0.86869841  0.39845807  0.24997202     0.62800
H681        H  0.91125794  0.43677695  0.26482566     0.12200
C682        C  0.98871533  0.39706002  0.19097519     0.55000
H683        H  0.94364083  0.36234683  0.17162738     0.08000
C684        C  0.87210051  0.36440482  0.15445858    -0.05800
C685        C  0.85057080  0.34519554  0.14219900    -0.06500
C686        C  0.84438032  0.31935354  0.16186910    -0.16100
C687        C  0.86130920  0.31222829  0.19482329    -0.01700
C688        C  0.88248867  0.33197498  0.20738354    -0.09200
C689        C  0.87859408  0.39134255  0.13127455     0.65000
H690        H  0.83850953  0.35035471  0.11657132     0.10500
C691        C  0.85742722  0.28429763  0.21708264     0.63400
H692        H  0.89520330  0.32750971  0.23274001     0.07900
F693        F  0.99546930  0.42102427  0.16934127    -0.19600
F694        F  0.99340762  0.37259317  0.16863238    -0.15800
F695        F  0.00748442  0.39500108  0.22174328    -0.19300
F696        F  0.86531392  0.37232836  0.26857598    -0.22700
F697        F  0.84766553  0.40114888  0.22192654    -0.24200
F698        F  0.86402495  0.42062585  0.27605812    -0.18200
F699        F  0.86374753  0.26056276  0.19411246    -0.20600
F700        F  0.82907851  0.28287348  0.23025036    -0.21800
F701        F  0.87583698  0.28261276  0.24828491    -0.19000
F702        F  0.86082622  0.39369696  0.09952537    -0.19100
F703        F  0.90726399  0.39005016  0.11908434    -0.22900
F704        F  0.87431892  0.41608805  0.15307341    -0.24500
C705        C  0.62175783  0.38160767  0.03606358    -0.11300
C706        C  0.62320817  0.37075387  0.07308544     0.11300
C707        C  0.60320109  0.38128182  0.10070225    -0.03100
C708        C  0.58240238  0.40283835  0.09009744    -0.05900
C709        C  0.58156755  0.41449426  0.05322616    -0.16600
C710        C  0.60103784  0.40295805  0.02530613     0.02300
C711        C  0.64756620  0.35001272  0.08203701     0.12200
C712        C  0.60439743  0.37039703  0.14133654     0.62800
H713        H  0.56745089  0.41164554  0.11104371     0.12200
C714        C  0.60020119  0.41278115  0.98412180     0.55000
H715        H  0.63766370  0.37358126  0.01565578     0.08000
C716        C  0.64765261  0.32076402  0.06952475    -0.05800
C717        C  0.67336961  0.30383064  0.07367790    -0.06500
C718        C  0.69911238  0.31525923  0.08920140    -0.16100
C719        C  0.69831691  0.34420491  0.10384063    -0.01700
C720        C  0.67255248  0.36108647  0.09941935    -0.09200
C721        C  0.62098031  0.30768911  0.05085679     0.65000
H722        H  0.67385693  0.28175564  0.06295630     0.10500
C723        C  0.72425798  0.35779074  0.12370382     0.63400
H724        H  0.67207549  0.38369267  0.10813224     0.07900
F725        F  0.61634571  0.39423635  0.96089020    -0.19600
F726        F  0.61175042  0.44022256  0.98115356    -0.15800
F727        F  0.57174627  0.41321483  0.97078204    -0.19300
F728        F  0.63011949  0.37885524  0.15831852    -0.22700
F729        F  0.60314611  0.34040482  0.14188839    -0.24200
F730        F  0.58136225  0.38139837  0.16272059    -0.18200
F731        F  0.74549559  0.36431474  0.09739289    -0.20600
F732        F  0.73570686  0.33887920  0.15061831    -0.21800
F733        F  0.71635969  0.38332708  0.14227243    -0.19000
F734        F  0.62483196  0.27818635  0.04415255    -0.19100
F735        F  0.61547170  0.32107067  0.01644535    -0.22900
F736        F  0.59691725  0.31143986  0.07408094    -0.24500
C737        C  0.86104466  0.65841921  0.80909520    -0.11300
C738        C  0.85819975  0.63060441  0.82463859     0.11300
C739        C  0.83268187  0.62409697  0.84528318    -0.03100
C740        C  0.81012987  0.64528686  0.84785086    -0.05900
C741        C  0.81206798  0.67280720  0.83064941    -0.16600
C742        C  0.83841012  0.67971046  0.81134208     0.02300
C743        C  0.88211077  0.60852627  0.81827797     0.12200
C744        C  0.82914406  0.59476766  0.86431538     0.62800
H745        H  0.79042862  0.64026750  0.86321353     0.12200
C746        C  0.84261124  0.70876697  0.79184996     0.55000
H747        H  0.88109955  0.66301306  0.79424490     0.08000
C748        C  0.88421593  0.59202695  0.78425297    -0.05800
C749        C  0.90643101  0.57041410  0.78096148    -0.06500
C750        C  0.92624639  0.56474445  0.81060269    -0.16100
C751        C  0.92403814  0.58123555  0.84458543    -0.01700
C752        C  0.90248159  0.60344839  0.84741674    -0.09200
C753        C  0.86265552  0.59685849  0.75194139     0.65000
H754        H  0.90808538  0.55722277  0.75551460     0.10500
C755        C  0.94303350  0.57391688  0.87864800     0.63400
H756        H  0.90052900  0.61628640  0.87313671     0.07900
F757        F  0.82069528  0.71348293  0.76534234    -0.19600
F758        F  0.86909355  0.70981892  0.77304786    -0.15800
F759        F  0.84212364  0.73090820  0.81847897    -0.19300
F760        F  0.85021391  0.59104206  0.89212683    -0.22700
F761        F  0.83205529  0.57265705  0.83786777    -0.24200
F762        F  0.80205012  0.59240531  0.88127429    -0.18200
F763        F  0.93770179  0.59253450  0.90890477    -0.20600
F764        F  0.97212630  0.57571399  0.86905096    -0.21800
F765        F  0.93739421  0.54596165  0.89030333    -0.19000
F766        F  0.86794171  0.57795316  0.72198589    -0.19100
F767        F  0.86471841  0.62492517  0.73847583    -0.22900
F768        F  0.83450660  0.59257610  0.76455261    -0.24500
C769        C  0.65292063  0.63848348  0.96927617    -0.11300
C770        C  0.63237491  0.62481518  0.94596973     0.11300
C771        C  0.63128551  0.63176736  0.90680822    -0.03100
C772        C  0.65154042  0.65147727  0.89205535    -0.05900
C773        C  0.67261218  0.66476092  0.91505773    -0.16600
C774        C  0.67328058  0.65823042  0.95452831     0.02300
C775        C  0.61322207  0.60207888  0.96254932     0.12200
C776        C  0.60900795  0.61804017  0.88059017     0.62800
H777        H  0.65109891  0.65670829  0.86210476     0.12200
C778        C  0.69614298  0.67089767  0.98074073     0.55000
H779        H  0.65320776  0.63305679  0.99916288     0.08000
C780        C  0.62315418  0.57300711  0.96708639    -0.05800
C781        C  0.60292732  0.55168772  0.97695846    -0.06500
C782        C  0.57301837  0.55819373  0.98298411    -0.16100
C783        C  0.56379247  0.58808872  0.98234989    -0.01700
C784        C  0.58418273  0.60936343  0.97177250    -0.09200
C785        C  0.65503831  0.56442394  0.96116284     0.65000
H786        H  0.61053717  0.52935438  0.97926223     0.10500
C787        C  0.53288367  0.59802357  0.99243965     0.63400
H788        H  0.57740234  0.63196633  0.96935966     0.07900
F789        F  0.69479050  0.65932605  0.01692697    -0.19600
F790        F  0.69185968  0.70062749  0.98375645    -0.15800
F791        F  0.72374112  0.66491852  0.96648946    -0.19300
F792        F  0.58107693  0.62553799  0.89235236    -0.22700
F793        F  0.61238537  0.58811009  0.88114060    -0.24200
F794        F  0.61202802  0.62721705  0.84344406    -0.18200
F795        F  0.52595365  0.58841894  0.02842174    -0.20600
F796        F  0.51322301  0.58730689  0.96637680    -0.21800
F797        F  0.52980088  0.62803328  0.99245657    -0.19000
F798        F  0.65982024  0.53474674  0.96483982    -0.19100
F799        F  0.67204570  0.57820337  0.98794241    -0.22900
F800        F  0.66394324  0.57238428  0.92526882    -0.24500
C801        C  0.74120201  0.76126650  0.65825582    -0.11300
C802        C  0.75411177  0.73794480  0.63838540     0.11300
C803        C  0.76519309  0.71353809  0.65855374    -0.03100
C804        C  0.76135506  0.71262441  0.69813990    -0.05900
C805        C  0.74822690  0.73586586  0.71816222    -0.16600
C806        C  0.73813883  0.76082178  0.69799903     0.02300
C807        C  0.75643088  0.74032893  0.59646328     0.12200
C808        C  0.78203296  0.68918318  0.63862834     0.62800
H809        H  0.76950530  0.69404407  0.71406314     0.12200
C810        C  0.72343883  0.78651757  0.71790428     0.55000
H811        H  0.73359550  0.77996554  0.64214786     0.08000
C812        C  0.73272568  0.73420855  0.57199748    -0.05800
C813        C  0.73639974  0.73772176  0.53262525    -0.06500
C814        C  0.76258881  0.74786853  0.51728575    -0.16100
C815        C  0.78629575  0.75400878  0.54195120    -0.01700
C816        C  0.78265251  0.75017907  0.58126283    -0.09200
C817        C  0.70362347  0.72434618  0.58747887     0.65000
H818        H  0.71853234  0.73314889  0.51343891     0.10500
C819        C  0.81561520  0.76372468  0.52702759     0.63400
H820        H  0.80024476  0.75511539  0.60070538     0.07900
F821        F  0.71276896  0.80694381  0.69232351    -0.19600
F822        F  0.74324189  0.80017848  0.74127547    -0.15800
F823        F  0.70021922  0.77703467  0.73929015    -0.19300
F824        F  0.80803725  0.69972102  0.62498618    -0.22700
F825        F  0.76593039  0.67842593  0.60866213    -0.24200
F826        F  0.78854732  0.66634303  0.66293831    -0.18200
F827        F  0.81281315  0.79119801  0.51150692    -0.20600
F828        F  0.82566243  0.74438521  0.49965559    -0.21800
F829        F  0.83646107  0.76487851  0.55551087    -0.19000
F830        F  0.68390921  0.71848516  0.55871698    -0.19100
F831        F  0.69147394  0.74587861  0.61026070    -0.22900
F832        F  0.70764856  0.69933535  0.60866618    -0.24500
C833        C  0.77181418  0.75703861  0.15853718    -0.11300
C834        C  0.75569329  0.73696188  0.13763030     0.11300
C835        C  0.74189255  0.71403318  0.15661275    -0.03100
C836        C  0.74352160  0.71286070  0.19645932    -0.05900
C837        C  0.75919454  0.73327041  0.21817329    -0.16600
C838        C  0.77420967  0.75562177  0.19847156     0.02300
C839        C  0.75444382  0.74008486  0.09560992     0.12200
C840        C  0.72584260  0.69063615  0.13476755     0.62800
H841        H  0.73257796  0.69545036  0.21084505     0.12200
C842        C  0.79309190  0.77779980  0.21856508     0.55000
H843        H  0.78271158  0.77390761  0.14293796     0.08000
C844        C  0.73429290  0.75935855  0.07756753    -0.05800
C845        C  0.73452882  0.76131135  0.03770706    -0.06500
C846        C  0.75440373  0.74500958  0.01575644    -0.16100
C847        C  0.77471865  0.72594107  0.03369386    -0.01700
C848        C  0.77443594  0.72385795  0.07358065    -0.09200
C849        C  0.71318251  0.77833241  0.10031919     0.65000
H850        H  0.71948605  0.77603559  0.02326030     0.10500
C851        C  0.79670896  0.70821637  0.01073852     0.63400
H852        H  0.78990353  0.70958337  0.08801779     0.07900
F853        F  0.80597439  0.79664662  0.19333061    -0.19600
F854        F  0.81533988  0.76367456  0.23825619    -0.15800
F855        F  0.77624449  0.79441263  0.24327615    -0.19300
F856        F  0.74523316  0.67556179  0.11161309    -0.22700
F857        F  0.70405805  0.70309831  0.11259178    -0.24200
F858        F  0.71305207  0.67079738  0.15873522    -0.18200
F859        F  0.81361262  0.72654867  0.98931533    -0.20600
F860        F  0.78217158  0.68951208  0.98678458    -0.21800
F861        F  0.81517997  0.69179265  0.03375464    -0.19000
F862        F  0.69429137  0.79405300  0.07705202    -0.19100
F863        F  0.72865767  0.79780536  0.12206550    -0.22900
F864        F  0.69657828  0.76137321  0.12393207    -0.24500
C865        C  0.86145047  0.64076322  0.28418501    -0.11300
C866        C  0.87779925  0.63237147  0.31611219     0.11300
C867        C  0.87145015  0.64515470  0.35189823    -0.03100
C868        C  0.84708792  0.66430621  0.35506876    -0.05900
C869        C  0.82950681  0.67104412  0.32348495    -0.16600
C870        C  0.83733996  0.66002493  0.28723637     0.02300
C871        C  0.90029833  0.60883048  0.31152311     0.12200
C872        C  0.89031549  0.63835846  0.38638454     0.62800
H873        H  0.84121877  0.67367731  0.38230593     0.12200
C874        C  0.82042765  0.66897223  0.25188558     0.55000
H875        H  0.86727265  0.63136087  0.25694616     0.08000
C876        C  0.89268085  0.57924287  0.31184971    -0.05800
C877        C  0.91497031  0.55790832  0.30903773    -0.06500
C878        C  0.94472743  0.56492652  0.30536715    -0.16100
C879        C  0.95207101  0.59499811  0.30337968    -0.01700
C880        C  0.92951662  0.61628450  0.30653552    -0.09200
C881        C  0.86098600  0.57025341  0.31498432     0.65000
H882        H  0.90898874  0.53529828  0.30983360     0.10500
C883        C  0.98319558  0.60520562  0.29811007     0.63400
H884        H  0.93446477  0.63918694  0.30555220     0.07900
F885        F  0.79197775  0.65966276  0.25424114    -0.19600
F886        F  0.83268337  0.65722124  0.21926080    -0.15800
F887        F  0.82036698  0.69891485  0.24856227    -0.19300
F888        F  0.91851785  0.64729145  0.37989322    -0.22700
F889        F  0.89080180  0.60878984  0.39335127    -0.24200
F890        F  0.88004899  0.65243191  0.41861610    -0.18200
F891        F  0.99480195  0.59360318  0.26504072    -0.20600
F892        F  0.00015450  0.59680528  0.32879404    -0.21800
F893        F  0.98455783  0.63517391  0.29544276    -0.19000
F894        F  0.85838905  0.54037246  0.31707591    -0.19100
F895        F  0.84557446  0.57980094  0.28345729    -0.22900
F896        F  0.84845015  0.58225527  0.34722208    -0.24500
C897        C  0.63342998  0.57659693  0.45661207    -0.11300
C898        C  0.62322995  0.60435806  0.44637268     0.11300
C899        C  0.59294462  0.61101514  0.44752580    -0.03100
C900        C  0.57406331  0.59028569  0.46266232    -0.05900
C901        C  0.58458859  0.56325326  0.47595635    -0.16600
C902        C  0.61460870  0.55564484  0.47113752     0.02300
C903        C  0.64508477  0.62566859  0.43400823     0.12200
C904        C  0.58076605  0.63997001  0.43338949     0.62800
H905        H  0.55099231  0.59547322  0.46541919     0.12200
C906        C  0.62690092  0.52552297  0.48036660     0.55000
H907        H  0.65657761  0.57171742  0.45390049     0.08000
C908        C  0.66178002  0.64168206  0.46040543    -0.05800
C909        C  0.68318944  0.66047341  0.44660558    -0.06500
C910        C  0.68918557  0.66246585  0.40762549    -0.16100
C911        C  0.67239789  0.64631699  0.38129288    -0.01700
C912        C  0.65053986  0.62816999  0.39511758    -0.09200
C913        C  0.65777215  0.63795656  0.50291245     0.65000
H914        H  0.69624751  0.67290140  0.46627483     0.10500
C915        C  0.67718811  0.64837268  0.33871802     0.63400
H916        H  0.63785804  0.61517535  0.37566682     0.07900
F917        F  0.62864255  0.52186288  0.51924963    -0.19600
F918        F  0.65468220  0.52127812  0.46566794    -0.15800
F919        F  0.60921636  0.50450792  0.46483807    -0.19300
F920        F  0.58772273  0.64348454  0.39554303    -0.22700
F921        F  0.59250750  0.66243347  0.45419444    -0.24200
F922        F  0.55064831  0.64177871  0.43662016    -0.18200
F923        F  0.70369563  0.63541713  0.32927577    -0.20600
F924        F  0.67696663  0.67721699  0.32767193    -0.21800
F925        F  0.65559224  0.63447267  0.31842636    -0.19000
F926        F  0.67443191  0.65723185  0.52353457    -0.19100
F927        F  0.66617198  0.61004766  0.51326175    -0.22900
F928        F  0.62882517  0.64262528  0.51263338    -0.24500
C929        C  0.65234216  0.82779613  0.42704815    -0.11300
C930        C  0.65006170  0.84901649  0.39863401     0.11300
C931        C  0.67140765  0.84969673  0.36960306    -0.03100
C932        C  0.69509163  0.82975162  0.37110396    -0.05900
C933        C  0.69759398  0.80874496  0.39986454    -0.16600
C934        C  0.67584109  0.80765253  0.42838304     0.02300
C935        C  0.62857950  0.87312213  0.40517598     0.12200
C936        C  0.67079462  0.87170461  0.33758562     0.62800
H937        H  0.71203675  0.83075698  0.34972149     0.12200
C938        C  0.67849835  0.78685189  0.46168627     0.55000
H939        H  0.63623563  0.82819728  0.44951928     0.08000
C940        C  0.59813785  0.86956725  0.40122688    -0.05800
C941        C  0.57916198  0.89127500  0.41583326    -0.06500
C942        C  0.58979006  0.91662290  0.43316162    -0.16100
C943        C  0.62030203  0.92173292  0.43222077    -0.01700
C944        C  0.63919944  0.89944949  0.41909013    -0.09200
C945        C  0.58584271  0.84296038  0.38185327     0.65000
H946        H  0.55581828  0.88795919  0.41505612     0.10500
C947        C  0.63312660  0.95055753  0.44417259     0.63400
H948        H  0.66263551  0.90203173  0.42076662     0.07900
F949        F  0.65705970  0.79210543  0.48863823    -0.19600
F950        F  0.70531113  0.78998601  0.47922596    -0.15800
F951        F  0.67587875  0.75854582  0.44907250    -0.19300
F952        F  0.69173931  0.89233736  0.34436626    -0.22700
F953        F  0.64390010  0.88559008  0.33367748    -0.24200
F954        F  0.67704409  0.85785870  0.30354388    -0.18200
F955        F  0.66182087  0.95285670  0.43242203    -0.20600
F956        F  0.63260557  0.95319506  0.48326179    -0.21800
F957        F  0.61728329  0.97328191  0.42797117    -0.19000
F958        F  0.55629950  0.84650080  0.37421438    -0.19100
F959        F  0.58969248  0.81889359  0.40482726    -0.22900
F960        F  0.60001836  0.83805139  0.34772452    -0.24500
C961        C  0.59886287  0.09834141  0.51352546    -0.11300
C962        C  0.61426828  0.09882251  0.54802680     0.11300
C963        C  0.61102756  0.07560514  0.57396077    -0.03100
C964        C  0.59358185  0.05191800  0.56350768    -0.05900
C965        C  0.57830317  0.05118214  0.52884198    -0.16600
C966        C  0.58066472  0.07501639  0.50352377     0.02300
C967        C  0.63420446  0.12354697  0.55595570     0.12200
C968        C  0.62544190  0.07615164  0.61287902     0.62800
H969        H  0.59112423  0.03392393  0.58292412     0.12200
C970        C  0.56458698  0.07567891  0.46581880     0.55000
H971        H  0.60128348  0.11651973  0.49440546     0.08000
C972        C  0.66397665  0.12243188  0.54501429    -0.05800
C973        C  0.68247272  0.14495525  0.55667149    -0.06500
C974        C  0.67183379  0.16910128  0.57714789    -0.16100
C975        C  0.64166499  0.17133323  0.58569289    -0.01700
C976        C  0.62326571  0.14831976  0.57510897    -0.09200
C977        C  0.67596491  0.09777203  0.52050137     0.65000
H978        H  0.70557692  0.14379069  0.55017133     0.10500
C979        C  0.62936928  0.19761931  0.60682188     0.63400
H980        H  0.60030742  0.14916981  0.58242020     0.07900
F981        F  0.57326213  0.09858314  0.44334714    -0.19600
F982        F  0.53489931  0.07885223  0.47205559    -0.15800
F983        F  0.57010689  0.05014224  0.44604887    -0.19300
F984        F  0.61568951  0.10037332  0.63280034    -0.22700
F985        F  0.65543658  0.07720563  0.60930955    -0.24200
F986        F  0.61896458  0.05177419  0.63398188    -0.18200
F987        F  0.59955759  0.19577653  0.61246303    -0.20600
F988        F  0.63447591  0.22252504  0.58616236    -0.21800
F989        F  0.64274695  0.19990485  0.64192879    -0.19000
F990        F  0.70550542  0.10058952  0.51352414    -0.19100
F991        F  0.66149356  0.09780846  0.48601554    -0.22900
F992        F  0.67202127  0.07131662  0.53801741    -0.24500
C993        C  0.53508305  0.98863429  0.76362840    -0.11300
C994        C  0.50698718  0.98987619  0.74793580     0.11300
C995        C  0.48241186  0.99081115  0.77221487    -0.03100
C996        C  0.48699055  0.99179795  0.81182033    -0.05900
C997        C  0.51522579  0.99179659  0.82771018    -0.16600
C998        C  0.53985394  0.98984845  0.80304980     0.02300
C999        C  0.50458222  0.98993626  0.70576728     0.12200
C1000       C  0.45157546  0.99068829  0.75632602     0.62800
H1001       H  0.46842950  0.99303568  0.83073972     0.12200
C1002       C  0.57118615  0.98884237  0.81765481     0.55000
H1003       H  0.55344805  0.98731710  0.74433408     0.08000
C1004       C  0.51002915  0.01521449  0.68414786    -0.05800
C1005       C  0.51133032  0.01287946  0.64432785    -0.06500
C1006       C  0.50813953  0.98611725  0.62581396    -0.16100
C1007       C  0.50138027  0.96111077  0.64723411    -0.01700
C1008       C  0.49984584  0.96345953  0.68707727    -0.09200
C1009       C  0.51538468  0.04434698  0.70307492     0.65000
H1010       H  0.51634865  0.03172734  0.62735165     0.10500
C1011       C  0.49569062  0.93216401  0.62808427     0.63400
H1012       H  0.49601247  0.94435388  0.70411007     0.07900
F1013       F  0.57831626  0.01559707  0.83268130    -0.19600
F1014       F  0.59099498  0.98245130  0.78904257    -0.15800
F1015       F  0.57441448  0.96760957  0.84515768    -0.19300
F1016       F  0.44704437  0.96489682  0.73718175    -0.22700
F1017       F  0.44743396  0.01361784  0.73150131    -0.24200
F1018       F  0.43080351  0.99327645  0.78469194    -0.18200
F1019       F  0.52128141  0.92101138  0.61264490    -0.20600
F1020       F  0.47513864  0.93593321  0.59956835    -0.21800
F1021       F  0.48514240  0.91198041  0.65343203    -0.19000
F1022       F  0.51787281  0.06643808  0.67673899    -0.19100
F1023       F  0.54097633  0.04294284  0.72392260    -0.22900
F1024       F  0.49245774  0.05153055  0.72697322    -0.24500
C1025       C  0.50100798  0.96367193  0.26739683    -0.11300
C1026       C  0.51278205  0.98723700  0.24786604     0.11300
C1027       C  0.52432038  0.01087739  0.26858914    -0.03100
C1028       C  0.52211605  0.01081642  0.30848234    -0.05900
C1029       C  0.50929597  0.98772807  0.32776406    -0.16600
C1030       C  0.49953004  0.96330455  0.30726101     0.02300
C1031       C  0.50948749  0.98806686  0.20588491     0.12200
C1032       C  0.53813679  0.03635965  0.24858304     0.62800
H1033       H  0.52959300  0.02919083  0.32489247     0.12200
C1034       C  0.48658529  0.93756038  0.32759347     0.55000
H1035       H  0.49203422  0.94598090  0.25103060     0.08000
C1036       C  0.52844514  0.97260915  0.18096456    -0.05800
C1037       C  0.52364758  0.97494015  0.14152140    -0.06500
C1038       C  0.49984830  0.99097857  0.12672088    -0.16100
C1039       C  0.48017476  0.00541493  0.15181782    -0.01700
C1040       C  0.48555828  0.00384256  0.19109620    -0.09200
C1041       C  0.55319722  0.95337081  0.19596429     0.65000
H1042       H  0.53802005  0.96358698  0.12183957     0.10500
C1043       C  0.45406426  0.02302831  0.13727072     0.63400
H1044       H  0.47099757  0.01488835  0.21084472     0.07900
F1045       F  0.50673582  0.92612686  0.35308765    -0.19600
F1046       F  0.47903123  0.91567551  0.30260306    -0.15800
F1047       F  0.46175125  0.94648671  0.34697417    -0.19300
F1048       F  0.51718853  0.05157473  0.22798582    -0.22700
F1049       F  0.55974916  0.02645323  0.22418883    -0.24200
F1050       F  0.55073052  0.05537222  0.27408163    -0.18200
F1051       F  0.43562670  0.00544354  0.11676562    -0.20600
F1052       F  0.46362265  0.04515390  0.11424922    -0.21800
F1053       F  0.43799029  0.03539700  0.16662087    -0.19000
F1054       F  0.56888319  0.94022718  0.16684669    -0.19100
F1055       F  0.54207854  0.93165605  0.21842349    -0.22900
F1056       F  0.57222562  0.96966687  0.21734699    -0.24500
C1057       C  0.58686536  0.87511156  0.90871735    -0.11300
C1058       C  0.61456477  0.87576299  0.92582351     0.11300
C1059       C  0.62181747  0.89967513  0.94921141    -0.03100
C1060       C  0.60088108  0.92210270  0.95493615    -0.05900
C1061       C  0.57325856  0.92189098  0.93735221    -0.16600
C1062       C  0.56603701  0.89789330  0.91385060     0.02300
C1063       C  0.63628281  0.85192540  0.91752080     0.12200
C1064       C  0.65205296  0.90211059  0.96674140     0.62800
H1065       H  0.60640087  0.94075511  0.97216903     0.12200
C1066       C  0.53702339  0.89680755  0.89304578     0.55000
H1067       H  0.58194474  0.85678931  0.89059404     0.08000
C1068       C  0.63742035  0.82568679  0.93848158    -0.05800
C1069       C  0.66118981  0.80614377  0.93288916    -0.06500
C1070       C  0.68352502  0.81203011  0.90693846    -0.16100
C1071       C  0.68088938  0.83705090  0.88350203    -0.01700
C1072       C  0.65722130  0.85660442  0.88933086    -0.09200
C1073       C  0.61378594  0.81863103  0.96689988     0.65000
H1074       H  0.66309338  0.78657714  0.94981431     0.10500
C1075       C  0.70270339  0.84305319  0.85218520     0.63400
H1076       H  0.65545754  0.87640509  0.87284479     0.07900
F1077       F  0.51466208  0.89452123  0.91908301    -0.19600
F1078       F  0.53576450  0.87323507  0.86861126    -0.15800
F1079       F  0.53279309  0.92175032  0.87173164    -0.19300
F1080       F  0.67251627  0.90540661  0.93837100    -0.22700
F1081       F  0.65899011  0.87738027  0.98733464    -0.24200
F1082       F  0.65381262  0.92575836  0.99097940    -0.18200
F1083       F  0.69306446  0.86535585  0.82867740    -0.20600
F1084       F  0.70684413  0.81843351  0.83002850    -0.21800
F1085       F  0.72908700  0.85102037  0.86776936    -0.19000
F1086       F  0.61930082  0.79234448  0.98483561    -0.19100
F1087       F  0.58721992  0.81689713  0.94838409    -0.22900
F1088       F  0.61193786  0.84009027  0.99438193    -0.24500
C1089       C  0.66379942  0.14321423  0.02629529    -0.11300
C1090       C  0.65216815  0.12415953  0.05310659     0.11300
C1091       C  0.66211806  0.12491788  0.09110113    -0.03100
C1092       C  0.68218251  0.14620744  0.10157492    -0.05900
C1093       C  0.69338480  0.16595148  0.07513398    -0.16600
C1094       C  0.68471603  0.16395833  0.03651396     0.02300
C1095       C  0.63054301  0.10260302  0.04032716     0.12200
C1096       C  0.65202610  0.10294497  0.12024130     0.62800
H1097       H  0.68945013  0.14748940  0.13079910     0.12200
C1098       C  0.69841134  0.18248450  0.00597743     0.55000
H1099       H  0.65646598  0.14148271  0.99713621     0.08000
C1100       C  0.60023226  0.10902007  0.03960313    -0.05800
C1101       C  0.58098454  0.08695144  0.02900461    -0.06500
C1102       C  0.59114669  0.05913691  0.01794995    -0.16100
C1103       C  0.62179603  0.05295959  0.01812428    -0.01700
C1104       C  0.64087831  0.07501248  0.02936260    -0.09200
C1105       C  0.58840307  0.13931446  0.04877857     0.65000
H1106       H  0.55772511  0.09162942  0.02808426     0.10500
C1107       C  0.63465079  0.02327143  0.00747708     0.63400
H1108       H  0.66425756  0.07094500  0.02982412     0.07900
F1109       F  0.69022974  0.21132239  0.01098485    -0.19600
F1110       F  0.68977570  0.17414538  0.96993141    -0.15800
F1111       F  0.72853072  0.17968379  0.00785439    -0.19300
F1112       F  0.66022427  0.07518975  0.10884844    -0.22700
F1113       F  0.62200097  0.10442672  0.12389836    -0.24200
F1114       F  0.66416033  0.10782358  0.15567256    -0.18200
F1115       F  0.63074772  0.01810534  0.96911952    -0.20600
F1116       F  0.62129013  0.00184698  0.02830244    -0.21800
F1117       F  0.66434819  0.02133190  0.01480473    -0.19000
F1118       F  0.55817504  0.14062387  0.04774574    -0.19100
F1119       F  0.59876248  0.15881527  0.02250189    -0.22900
F1120       F  0.59723899  0.14774382  0.08461817    -0.24500
C1121       C  0.08970650  0.62565688  0.83253835    -0.11300
C1122       C  0.11934233  0.62019049  0.82507448     0.11300
C1123       C  0.12849712  0.59261755  0.81130184    -0.03100
C1124       C  0.10742249  0.57126637  0.80547304    -0.05900
C1125       C  0.07733062  0.57684474  0.81116323    -0.16600
C1126       C  0.06828936  0.60476954  0.82484205     0.02300
C1127       C  0.14024757  0.64433185  0.82881398     0.12200
C1128       C  0.16031603  0.58617001  0.80139361     0.62800
H1129       H  0.11443851  0.55007852  0.79517029     0.12200
C1130       C  0.03637264  0.61313066  0.83026530     0.55000
H1131       H  0.08342095  0.64697129  0.84320304     0.08000
C1132       C  0.14358058  0.66488340  0.79938459    -0.05800
C1133       C  0.16677619  0.68433603  0.80165653    -0.06500
C1134       C  0.18660438  0.68366451  0.83198988    -0.16100
C1135       C  0.18208012  0.66455765  0.86275867    -0.01700
C1136       C  0.15868259  0.64515535  0.86071892    -0.09200
C1137       C  0.12306500  0.66586954  0.76539243     0.65000
H1138       H  0.17019579  0.69963097  0.77903948     0.10500
C1139       C  0.20174259  0.66493101  0.89753970     0.63400
H1140       H  0.15532600  0.62962225  0.88325949     0.07900
F1141       F  0.02096540  0.60838896  0.79704999    -0.19600
F1142       F  0.03262742  0.64219227  0.83977769    -0.15800
F1143       F  0.02499447  0.59674944  0.85926171    -0.19300
F1144       F  0.17751531  0.58842272  0.83351252    -0.22700
F1145       F  0.16974066  0.60572374  0.77454187    -0.24200
F1146       F  0.16434009  0.55846305  0.78663541    -0.18200
F1147       F  0.20317875  0.69295679  0.91171022    -0.20600
F1148       F  0.22953193  0.65520124  0.88802075    -0.21800
F1149       F  0.19143887  0.64726934  0.92607342    -0.19000
F1150       F  0.13138240  0.68629790  0.73895830    -0.19100
F1151       F  0.09512312  0.67311280  0.77733360    -0.22900
F1152       F  0.12274942  0.63908734  0.74750214    -0.24500
C1153       C  0.34571165  0.65102678  0.96584222    -0.11300
C1154       C  0.36548596  0.63587777  0.94240854     0.11300
C1155       C  0.36479782  0.64050876  0.90272527    -0.03100
C1156       C  0.34460943  0.66100243  0.88785885    -0.05900
C1157       C  0.32491876  0.67657303  0.91125476    -0.16600
C1158       C  0.32525174  0.67126501  0.95094762     0.02300
C1159       C  0.38580163  0.61418967  0.95998824     0.12200
C1160       C  0.38493123  0.62339738  0.87621290     0.62800
H1161       H  0.34382140  0.66482725  0.85755024     0.12200
C1162       C  0.30378507  0.68635790  0.97739038     0.55000
H1163       H  0.34634953  0.64663500  0.99602616     0.08000
C1164       C  0.41267947  0.62217299  0.97660436    -0.05800
C1165       C  0.43123619  0.60015037  0.99132103    -0.06500
C1166       C  0.42360072  0.57075541  0.98994315    -0.16100
C1167       C  0.39699831  0.56277686  0.97254758    -0.01700
C1168       C  0.37811354  0.58485336  0.95881407    -0.09200
C1169       C  0.42153607  0.65377994  0.97897806     0.65000
H1170       H  0.45182733  0.60572250  0.00440436     0.10500
C1171       C  0.38961950  0.53112770  0.96591641     0.63400
H1172       H  0.35746989  0.57935936  0.94583139     0.07900
F1173       F  0.30959997  0.71560908  0.97820132    -0.19600
F1174       F  0.30588333  0.67594917  0.01415823    -0.15800
F1175       F  0.27551791  0.68224501  0.96478046    -0.19300
F1176       F  0.37849167  0.59419837  0.87771939    -0.22700
F1177       F  0.41373824  0.62690926  0.88679452    -0.24200
F1178       F  0.38191244  0.63237688  0.83892737    -0.18200
F1179       F  0.38710584  0.51677563  0.00010496    -0.20600
F1180       F  0.41150121  0.51791027  0.94459827    -0.21800
F1181       F  0.36352987  0.52832036  0.94640477    -0.19000
F1182       F  0.44909920  0.65663248  0.99464172    -0.19100
F1183       F  0.40187909  0.66918663  0.00137903    -0.22900
F1184       F  0.42180792  0.66594317  0.94315494    -0.24500
C1185       C  0.39470087  0.89560649  0.89524957    -0.11300
C1186       C  0.37573530  0.88709428  0.92422309     0.11300
C1187       C  0.37951385  0.89796315  0.96146860    -0.03100
C1188       C  0.40217376  0.91738947  0.96836008    -0.05900
C1189       C  0.42133239  0.92602366  0.93957080    -0.16600
C1190       C  0.41748353  0.91515925  0.90215880     0.02300
C1191       C  0.35248551  0.86611259  0.91516658     0.12200
C1192       C  0.36021387  0.88855185  0.99410612     0.62800
H1193       H  0.40550665  0.92561214  0.99685438     0.12200
C1194       C  0.43646716  0.92480723  0.86946754     0.55000
H1195       H  0.39144211  0.88672467  0.86708405     0.08000
C1196       C  0.32513565  0.87503881  0.90007654    -0.05800
C1197       C  0.30342998  0.85410775  0.89518454    -0.06500
C1198       C  0.30817672  0.82465128  0.90482998    -0.16100
C1199       C  0.33623653  0.81570027  0.91867690    -0.01700
C1200       C  0.35787012  0.83675585  0.92334281    -0.09200
C1201       C  0.31885564  0.90660125  0.88967894     0.65000
H1202       H  0.28228378  0.86078905  0.88407625     0.10500
C1203       C  0.34348574  0.78446005  0.92968893     0.63400
H1204       H  0.37923813  0.83062767  0.93428174     0.07900
F1205       F  0.42659109  0.91435531  0.83493790    -0.19600
F1206       F  0.46477208  0.91460801  0.87464605    -0.15800
F1207       F  0.43624213  0.95482874  0.86762907    -0.19300
F1208       F  0.36577126  0.85957446  0.00212544    -0.22700
F1209       F  0.33105818  0.89224624  0.98471521    -0.24200
F1210       F  0.36530316  0.90454617  0.02674220    -0.18200
F1211       F  0.37106444  0.78154117  0.94560637    -0.20600
F1212       F  0.34274472  0.76688464  0.89780285    -0.21800
F1213       F  0.32363644  0.77497495  0.95617549    -0.19000
F1214       F  0.29061816  0.91079626  0.87634785    -0.19100
F1215       F  0.33785050  0.91511312  0.86157926    -0.22900
F1216       F  0.32241401  0.92425501  0.92110690    -0.24500
C1217       C  0.26113465  0.78308493  0.57815331    -0.11300
C1218       C  0.25205518  0.75631665  0.59209057     0.11300
C1219       C  0.24413167  0.73411797  0.56641779    -0.03100
C1220       C  0.24761432  0.73887812  0.52721803    -0.05900
C1221       C  0.25745258  0.76548679  0.51296840    -0.16600
C1222       C  0.26388183  0.78831033  0.53899512     0.02300
C1223       C  0.25154569  0.75227248  0.63392501     0.12200
C1224       C  0.23167125  0.70576221  0.58043384     0.62800
H1225       H  0.24198385  0.72195536  0.50722020     0.12200
C1226       C  0.27426690  0.81788693  0.52618637     0.55000
H1227       H  0.26622526  0.79991081  0.59856060     0.08000
C1228       C  0.27720331  0.74494804  0.65454120    -0.05800
C1229       C  0.27535925  0.74173299  0.69415293    -0.06500
C1230       C  0.24903721  0.74661237  0.71376696    -0.16100
C1231       C  0.22341695  0.75444396  0.69308127    -0.01700
C1232       C  0.22521002  0.75718598  0.65332671    -0.09200
C1233       C  0.30651594  0.74124088  0.63480252     0.65000
H1234       H  0.29476122  0.73604841  0.71037358     0.10500
C1235       C  0.19414354  0.75889548  0.71252521     0.63400
H1236       H  0.20604520  0.76337593  0.63693586     0.07900
F1237       F  0.29792102  0.81442477  0.50225770    -0.19600
F1238       F  0.28290396  0.83496600  0.55649773    -0.15800
F1239       F  0.25195546  0.83271188  0.50756181    -0.19300
F1240       F  0.20628094  0.71138334  0.60054228    -0.22700
F1241       F  0.25162712  0.69167509  0.60382566    -0.24200
F1242       F  0.22497794  0.68723857  0.55075210    -0.18200
F1243       F  0.19471068  0.78330755  0.73543844    -0.20600
F1244       F  0.18817983  0.73486337  0.73430343    -0.21800
F1245       F  0.17156915  0.76258663  0.68665251    -0.19000
F1246       F  0.32838053  0.73256958  0.65975910    -0.19100
F1247       F  0.31444944  0.76736332  0.61893275    -0.22900
F1248       F  0.30474019  0.72048602  0.60648083    -0.24500
C1249       C  0.22262717  0.75704935  0.07605039    -0.11300
C1250       C  0.25059021  0.75438160  0.09230063     0.11300
C1251       C  0.27530679  0.75239670  0.06834905    -0.03100
C1252       C  0.27143440  0.75652699  0.02909343    -0.05900
C1253       C  0.24361429  0.75974375  0.01264098    -0.16600
C1254       C  0.21862382  0.75907883  0.03636313     0.02300
C1255       C  0.25333758  0.75275875  0.13444448     0.12200
C1256       C  0.30542765  0.74471279  0.08399148     0.62800
H1257       H  0.29027765  0.75743853  0.01086500     0.12200
C1258       C  0.18795372  0.75950421  0.01988778     0.55000
H1259       H  0.20391918  0.75743999  0.09480823     0.08000
C1260       C  0.25665706  0.77780990  0.15730201    -0.05800
C1261       C  0.26059978  0.77440874  0.19681429    -0.06500
C1262       C  0.26055753  0.74689907  0.21441676    -0.16100
C1263       C  0.25574721  0.72185698  0.19117542    -0.01700
C1264       C  0.25242998  0.72543978  0.15162178    -0.09200
C1265       C  0.25567982  0.80800888  0.13990119     0.65000
H1266       H  0.26400166  0.79342890  0.21425809     0.10500
C1267       C  0.25351573  0.69134458  0.20734078     0.63400
H1268       H  0.24933349  0.70674903  0.13339078     0.07900
F1269       F  0.18152153  0.78648919  0.00451564    -0.19600
F1270       F  0.16720227  0.75381557  0.04725816    -0.15800
F1271       F  0.18584444  0.73847214  0.99189411    -0.19300
F1272       F  0.30478627  0.71768379  0.10099661    -0.22700
F1273       F  0.31386596  0.76502515  0.11057692    -0.24200
F1274       F  0.32635242  0.74355359  0.05569288    -0.18200
F1275       F  0.24513036  0.67138434  0.18009985    -0.20600
F1276       F  0.23284962  0.69111622  0.23590147    -0.21800
F1277       F  0.28035927  0.68215694  0.22140815    -0.19000
F1278       F  0.25858019  0.82955819  0.16707373    -0.19100
F1279       F  0.22926444  0.81253080  0.12153469    -0.22900
F1280       F  0.27802168  0.81079669  0.11396141    -0.24500
C1281       C  0.15114082  0.67792109  0.33322018    -0.11300
C1282       C  0.15675005  0.64995757  0.31867047     0.11300
C1283       C  0.18566601  0.64146013  0.30906663    -0.03100
C1284       C  0.20810074  0.66131292  0.31465265    -0.05900
C1285       C  0.20285922  0.68941679  0.32924302    -0.16600
C1286       C  0.17375215  0.69790540  0.33914178     0.02300
C1287       C  0.13193937  0.63025620  0.31168365     0.12200
C1288       C  0.19293892  0.61152627  0.29275403     0.62800
H1289       H  0.23015035  0.65510205  0.30656449     0.12200
C1290       C  0.16641195  0.72715177  0.35720685     0.55000
H1291       H  0.12873153  0.68397688  0.33971861     0.08000
C1292       C  0.11957426  0.61320237  0.34069374    -0.05800
C1293       C  0.09911578  0.59199819  0.33056441    -0.06500
C1294       C  0.09177485  0.58676779  0.29245828    -0.16100
C1295       C  0.10328493  0.60483227  0.26365641    -0.01700
C1296       C  0.12242580  0.62696755  0.27417230    -0.09200
C1297       C  0.12864592  0.61681853  0.38187113     0.65000
H1298       H  0.08980266  0.57830867  0.35217096     0.10500
C1299       C  0.09590259  0.60073037  0.22188457     0.63400
H1300       H  0.13174831  0.64080926  0.25272827     0.07900
F1301       F  0.18308703  0.73061679  0.38956647    -0.19600
F1302       F  0.13733065  0.72940519  0.36771346    -0.15800
F1303       F  0.17170467  0.74938507  0.33201796    -0.19300
F1304       F  0.17960626  0.60820983  0.25783046    -0.22700
F1305       F  0.18338187  0.59025967  0.31712806    -0.24200
F1306       F  0.22268788  0.60728234  0.28760502    -0.18200
F1307       F  0.10684930  0.62278470  0.19968577    -0.20600
F1308       F  0.06593075  0.60060165  0.21701238    -0.21800
F1309       F  0.10792738  0.57478738  0.20883568    -0.19000
F1310       F  0.11446080  0.59764877  0.40540640    -0.19100
F1311       F  0.12192894  0.64475255  0.39398827    -0.22900
F1312       F  0.15838299  0.61177881  0.38556614    -0.24500
C1313       C  0.37234501  0.65623023  0.46316473    -0.11300
C1314       C  0.37738936  0.63035366  0.44267258     0.11300
C1315       C  0.36184206  0.62592692  0.40848505    -0.03100
C1316       C  0.34353696  0.64845347  0.39454843    -0.05900
C1317       C  0.33876827  0.67505652  0.41413414    -0.16600
C1318       C  0.35287862  0.67848834  0.45004159     0.02300
C1319       C  0.39817225  0.60760798  0.45809214     0.12200
C1320       C  0.36413531  0.59722011  0.38695753     0.62800
H1321       H  0.33244125  0.64496905  0.36784985     0.12200
C1322       C  0.34732102  0.70495920  0.47501648     0.55000
H1323       H  0.38376873  0.65870858  0.48988754     0.08000
C1324       C  0.42825678  0.60689405  0.44875776    -0.05800
C1325       C  0.44573394  0.58273654  0.46005328    -0.06500
C1326       C  0.43434121  0.55960032  0.48112452    -0.16100
C1327       C  0.40478216  0.56181290  0.49351899    -0.01700
C1328       C  0.38721221  0.58570673  0.48144190    -0.09200
C1329       C  0.44184133  0.63176165  0.42726352     0.65000
H1330       H  0.46840367  0.58136489  0.45144373     0.10500
C1331       C  0.39184573  0.53962696  0.52019444     0.63400
H1332       H  0.36436843  0.58707994  0.48927730     0.07900
F1333       F  0.36233991  0.70303231  0.50911589    -0.19600
F1334       F  0.31787008  0.70739143  0.48337442    -0.15800
F1335       F  0.35626231  0.72974548  0.45661782    -0.19300
F1336       F  0.35610191  0.57468124  0.41033199    -0.22700
F1337       F  0.39246036  0.59227207  0.37480370    -0.24200
F1338       F  0.34603453  0.59688637  0.35540668    -0.18200
F1339       F  0.41054653  0.53484424  0.55055510    -0.20600
F1340       F  0.38744405  0.51373667  0.50122903    -0.21800
F1341       F  0.36519927  0.54912900  0.53459869    -0.19000
F1342       F  0.47143876  0.62703181  0.42134287    -0.19100
F1343       F  0.43832340  0.65718545  0.44791334    -0.22900
F1344       F  0.42853558  0.63524328  0.39228212    -0.24500
C1345       C  0.35949580  0.86369547  0.38591049    -0.11300
C1346       C  0.37559187  0.86101778  0.41970915     0.11300
C1347       C  0.36859837  0.83897872  0.44597140    -0.03100
C1348       C  0.34574700  0.82002747  0.43708318    -0.05900
C1349       C  0.32857943  0.82372770  0.40427340    -0.16600
C1350       C  0.33591145  0.84549316  0.37773144     0.02300
C1351       C  0.39832246  0.88298279  0.42752410     0.12200
C1352       C  0.38408451  0.83647033  0.48403977     0.62800
H1353       H  0.34001129  0.80311565  0.45684979     0.12200
C1354       C  0.31911845  0.84943856  0.34083175     0.55000
H1355       H  0.36502216  0.88091321  0.36644784     0.08000
C1356       C  0.42670876  0.88084662  0.41183153    -0.05800
C1357       C  0.44617292  0.90381962  0.41786097    -0.06500
C1358       C  0.43765153  0.92930268  0.43744575    -0.16100
C1359       C  0.40928700  0.93100619  0.45392645    -0.01700
C1360       C  0.39021407  0.90766807  0.44865508    -0.09200
C1361       C  0.43585668  0.85499517  0.38739573     0.65000
H1362       H  0.46776990  0.90270143  0.40545170     0.10500
C1363       C  0.39894732  0.95710004  0.47722458     0.63400
H1364       H  0.36824491  0.90889905  0.45996173     0.07900
F1365       F  0.33344960  0.86756391  0.31604265    -0.19600
F1366       F  0.29184821  0.86158249  0.34812898    -0.15800
F1367       F  0.31594259  0.82283530  0.32302668    -0.19300
F1368       F  0.37769375  0.86083974  0.50575815    -0.22700
F1369       F  0.41394696  0.83427949  0.47891948    -0.24200
F1370       F  0.37542489  0.81226115  0.50404878    -0.18200
F1371       F  0.39408004  0.98077412  0.45381198    -0.20600
F1372       F  0.41972771  0.96381781  0.50426717    -0.21800
F1373       F  0.37307588  0.95172133  0.49599452    -0.19000
F1374       F  0.46492343  0.85616128  0.37692492    -0.19100
F1375       F  0.41910577  0.85461266  0.35470548    -0.22900
F1376       F  0.43194992  0.82937416  0.40695383    -0.24500
C1377       C  0.12761234  0.34081841  0.69736589    -0.11300
C1378       C  0.13374262  0.37048877  0.69562249     0.11300
C1379       C  0.16126516  0.37942378  0.68230980    -0.03100
C1380       C  0.18136110  0.35812947  0.66948284    -0.05900
C1381       C  0.17488150  0.32835216  0.66944798    -0.16600
C1382       C  0.14753402  0.31940972  0.68406741     0.02300
C1383       C  0.11039941  0.39182639  0.70637260     0.12200
C1384       C  0.16924892  0.41133322  0.68119219     0.62800
H1385       H  0.20240179  0.36472182  0.65894816     0.12200
C1386       C  0.13865166  0.28774104  0.68440327     0.55000
H1387       H  0.10657080  0.33466830  0.70839505     0.08000
C1388       C  0.08774004  0.39980837  0.68075143    -0.05800
C1389       C  0.06768906  0.42188540  0.69151475    -0.06500
C1390       C  0.07001488  0.43631656  0.72650893    -0.16100
C1391       C  0.09182272  0.42740253  0.75276854    -0.01700
C1392       C  0.11149292  0.40483726  0.74240517    -0.09200
C1393       C  0.08529658  0.38562410  0.64185071     0.65000
H1394       H  0.05078312  0.42904997  0.67189499     0.10500
C1395       C  0.09439191  0.44189173  0.79129578     0.63400
H1396       H  0.12864905  0.39792167  0.76178853     0.07900
F1397       F  0.11002404  0.28463273  0.69602804    -0.19600
F1398       F  0.15634492  0.27213030  0.70921039    -0.15800
F1399       F  0.14108421  0.27606166  0.64827939    -0.19300
F1400       F  0.16936357  0.42261784  0.71758948    -0.22700
F1401       F  0.14919648  0.42679272  0.65941820    -0.24200
F1402       F  0.19666725  0.41528003  0.66575687    -0.18200
F1403       F  0.11443632  0.42749005  0.81437335    -0.20600
F1404       F  0.06759083  0.44200531  0.80932915    -0.21800
F1405       F  0.10334501  0.47019584  0.78687124    -0.19000
F1406       F  0.06248840  0.39752357  0.62078759    -0.19100
F1407       F  0.08040557  0.35624347  0.64584474    -0.22900
F1408       F  0.11082306  0.38927167  0.62167922    -0.24500
C1409       C  0.36044530  0.33903298  0.61672228    -0.11300
C1410       C  0.36226991  0.35840919  0.58614087     0.11300
C1411       C  0.34086590  0.35792325  0.55706442    -0.03100
C1412       C  0.31747489  0.33883739  0.56051448    -0.05900
C1413       C  0.31531909  0.31962357  0.59119516    -0.16600
C1414       C  0.33725321  0.31937653  0.61971017     0.02300
C1415       C  0.38678808  0.37908704  0.58465256     0.12200
C1416       C  0.34293276  0.37723154  0.52223525     0.62800
H1417       H  0.30072526  0.33840734  0.53875087     0.12200
C1418       C  0.33567854  0.29921492  0.65359974     0.55000
H1419       H  0.37732524  0.33955179  0.63828662     0.08000
C1420       C  0.38474926  0.40703920  0.60157042    -0.05800
C1421       C  0.40621794  0.42750544  0.59303178    -0.06500
C1422       C  0.42963028  0.42050503  0.56894323    -0.16100
C1423       C  0.43256813  0.39205966  0.55380186    -0.01700
C1424       C  0.41115831  0.37158955  0.56240907    -0.09200
C1425       C  0.35990760  0.41516798  0.62824738     0.65000
H1426       H  0.40455621  0.44938778  0.60436887     0.10500
C1427       C  0.45736008  0.38395794  0.52702668     0.63400
H1428       H  0.41237052  0.34999121  0.55011579     0.07900
F1429       F  0.30934153  0.30353332  0.67211924    -0.19600
F1430       F  0.35796100  0.30405013  0.67935313    -0.15800
F1431       F  0.33804142  0.27065150  0.64162581    -0.19300
F1432       F  0.36794195  0.37004135  0.50212526    -0.22700
F1433       F  0.34387764  0.40612022  0.53296787    -0.24200
F1434       F  0.31927845  0.37401737  0.49813336    -0.18200
F1435       F  0.45600341  0.35534304  0.51499259    -0.20600
F1436       F  0.48377723  0.38749375  0.54517212    -0.21800
F1437       F  0.45621554  0.40165635  0.49536746    -0.19000
F1438       F  0.36154132  0.44370107  0.64056968    -0.19100
F1439       F  0.36112346  0.39731274  0.65972777    -0.22900
F1440       F  0.33330956  0.41190021  0.61025189    -0.24500
C1441       C  0.37179784  0.15948856  0.54946682    -0.11300
C1442       C  0.36656701  0.12978228  0.55244915     0.11300
C1443       C  0.34072832  0.12010733  0.56968952    -0.03100
C1444       C  0.32050707  0.14099460  0.58325122    -0.05900
C1445       C  0.32545178  0.17104916  0.58028964    -0.16600
C1446       C  0.35163876  0.18053225  0.56276847     0.02300
C1447       C  0.38910472  0.10925971  0.53795174     0.12200
C1448       C  0.33487989  0.08787082  0.57428075     0.62800
H1449       H  0.30062602  0.13384789  0.59655769     0.12200
C1450       C  0.35894332  0.21245326  0.55837607     0.55000
H1451       H  0.39200718  0.16598081  0.53634686     0.08000
C1452       C  0.38974595  0.10042031  0.49959624    -0.05800
C1453       C  0.41068760  0.07941353  0.48850692    -0.06500
C1454       C  0.43184995  0.06825001  0.51401257    -0.16100
C1455       C  0.43259234  0.07926273  0.55184921    -0.01700
C1456       C  0.41069177  0.09930333  0.56318607    -0.09200
C1457       C  0.36896064  0.11379597  0.47043784     0.65000
H1458       H  0.41096688  0.07191549  0.45934666     0.10500
C1459       C  0.45570061  0.06984587  0.58059106     0.63400
H1460       H  0.41007690  0.10745258  0.59205738     0.07900
F1461       F  0.38660389  0.21612151  0.54357222    -0.19600
F1462       F  0.35808856  0.22611968  0.59336835    -0.15800
F1463       F  0.33919431  0.22575939  0.53388529    -0.19300
F1464       F  0.35602262  0.07528992  0.59737977    -0.22700
F1465       F  0.33547679  0.07411648  0.53935879    -0.24200
F1466       F  0.30787137  0.08315131  0.59046063    -0.18200
F1467       F  0.45137625  0.08288509  0.61565630    -0.20600
F1468       F  0.48307267  0.07760234  0.56807482    -0.21800
F1469       F  0.45484770  0.04010248  0.58566069    -0.19000
F1470       F  0.37278829  0.10155377  0.43481230    -0.19100
F1471       F  0.37392717  0.14325568  0.46760920    -0.22900
F1472       F  0.34028980  0.10989019  0.48108778    -0.24500
C1473       C  0.24010416  0.22917151  0.83781011    -0.11300
C1474       C  0.25539263  0.25287275  0.85235339     0.11300
C1475       C  0.26963601  0.27188008  0.82715524    -0.03100
C1476       C  0.26731059  0.26681718  0.78775786    -0.05900
C1477       C  0.25164954  0.24329044  0.77327591    -0.16600
C1478       C  0.23763564  0.22425323  0.79853610     0.02300
C1479       C  0.25635226  0.25658870  0.89428470     0.12200
C1480       C  0.28748456  0.29705465  0.84184164     0.62800
H1481       H  0.27818655  0.28087253  0.76788682     0.12200
C1482       C  0.21901629  0.19974685  0.78387544     0.55000
H1483       H  0.22969729  0.21475332  0.85766853     0.08000
C1484       C  0.23245314  0.26853870  0.91481724    -0.05800
C1485       C  0.23397827  0.26905515  0.95471944    -0.06500
C1486       C  0.25865262  0.25844130  0.97477434    -0.16100
C1487       C  0.28280594  0.24701232  0.95384026    -0.01700
C1488       C  0.28093005  0.24589458  0.91391858    -0.09200
C1489       C  0.20563831  0.28111349  0.89465940     0.65000
H1490       H  0.21564414  0.27786247  0.97065384     0.10500
C1491       C  0.31053458  0.23609977  0.97311130     0.63400
H1492       H  0.29864616  0.23632816  0.89750088     0.07900
F1493       F  0.20639830  0.18438573  0.81309864    -0.19600
F1494       F  0.23582413  0.18045524  0.76265198    -0.15800
F1495       F  0.19687984  0.21131705  0.76145198    -0.19300
F1496       F  0.31081154  0.28656118  0.86306171    -0.22700
F1497       F  0.27036517  0.31510958  0.86439030    -0.24200
F1498       F  0.29845732  0.31353422  0.81251950    -0.18200
F1499       F  0.30466224  0.21100596  0.99289840    -0.20600
F1500       F  0.32090794  0.25707336  0.99767471    -0.21800
F1501       F  0.33241352  0.22967241  0.94720613    -0.19000
F1502       F  0.18508167  0.29196627  0.92002315    -0.19100
F1503       F  0.19247609  0.25994808  0.87303035    -0.22900
F1504       F  0.21369430  0.30360067  0.87123229    -0.24500
C1505       C  0.23537911  0.25419146  0.33229793    -0.11300
C1506       C  0.26111540  0.25192039  0.35370494     0.11300
C1507       C  0.28791257  0.24516583  0.33546342    -0.03100
C1508       C  0.28806502  0.24160889  0.29571040    -0.05900
C1509       C  0.26236348  0.24451981  0.27393182    -0.16600
C1510       C  0.23540239  0.25060725  0.29260535     0.02300
C1511       C  0.25892598  0.25518181  0.39556798     0.12200
C1512       C  0.31610973  0.24160312  0.35802707     0.62800
H1513       H  0.30840529  0.23666573  0.28123280     0.12200
C1514       C  0.20656208  0.25261234  0.27119914     0.55000
H1515       H  0.21513545  0.25885107  0.34715981     0.08000
C1516       C  0.25919740  0.28265019  0.41367132    -0.05800
C1517       C  0.25736781  0.28381781  0.45356206    -0.06500
C1518       C  0.25450337  0.25854786  0.47561243    -0.16100
C1519       C  0.25323787  0.23107971  0.45706579    -0.01700
C1520       C  0.25553982  0.23000818  0.41724320    -0.09200
C1521       C  0.26019628  0.31059755  0.39083558     0.65000
H1522       H  0.25784093  0.30466652  0.46788331     0.10500
C1523       C  0.24878191  0.20298635  0.47871713     0.63400
H1524       H  0.25484279  0.20934418  0.40247684     0.07900
F1525       F  0.20556364  0.27765917  0.24962981    -0.19600
F1526       F  0.18290098  0.25354929  0.29558643    -0.15800
F1527       F  0.20356392  0.22861121  0.24783721    -0.19300
F1528       F  0.31359003  0.21920466  0.38380424    -0.22700
F1529       F  0.32192674  0.26695628  0.37752172    -0.24200
F1530       F  0.33973876  0.23522064  0.33481924    -0.18200
F1531       F  0.22519624  0.20607538  0.50296544    -0.20600
F1532       F  0.27365215  0.19602413  0.49938742    -0.21800
F1533       F  0.24323714  0.17992672  0.45457132    -0.19000
F1534       F  0.26285089  0.33477179  0.41399363    -0.19100
F1535       F  0.23471754  0.31379245  0.36999933    -0.22900
F1536       F  0.28365322  0.30992390  0.36623228    -0.24500
C1537       C  0.12745456  0.41884618  0.17776652    -0.11300
C1538       C  0.12725031  0.39646038  0.20460285     0.11300
C1539       C  0.10991456  0.39955342  0.23758518    -0.03100
C1540       C  0.09194572  0.42462714  0.24149396    -0.05900
C1541       C  0.09152206  0.44689063  0.21413699    -0.16600
C1542       C  0.10981814  0.44406287  0.18168312     0.02300
C1543       C  0.14593636  0.37033086  0.19683315     0.12200
C1544       C  0.11082327  0.37676158  0.26869169     0.62800
H1545       H  0.07810926  0.42714314  0.26622084     0.12200
C1546       C  0.11001936  0.46670705  0.15032913     0.55000
H1547       H  0.14142544  0.41606394  0.15320100     0.08000
C1548       C  0.13634065  0.34749526  0.17303031    -0.05800
C1549       C  0.15648536  0.32535864  0.16248281    -0.06500
C1550       C  0.18608756  0.32679469  0.17250352    -0.16100
C1551       C  0.19569464  0.34969597  0.19607765    -0.01700
C1552       C  0.17517234  0.37072342  0.20878376    -0.09200
C1553       C  0.10579276  0.34797818  0.15598506     0.65000
H1554       H  0.14980956  0.30803249  0.14367191     0.10500
C1555       C  0.22779135  0.35284822  0.20578316     0.63400
H1556       H  0.18220688  0.38885388  0.22598885     0.07900
F1557       F  0.12730795  0.45796074  0.12000572    -0.19600
F1558       F  0.12098783  0.49247177  0.16407961    -0.15800
F1559       F  0.08194912  0.47143320  0.13679948    -0.19300
F1560       F  0.13883205  0.37434272  0.28322240    -0.22700
F1561       F  0.10281048  0.35007966  0.25441278    -0.24200
F1562       F  0.09209471  0.38391617  0.29822357    -0.18200
F1563       F  0.24296678  0.36037049  0.17349217    -0.20600
F1564       F  0.23912353  0.32690321  0.21973084    -0.21800
F1565       F  0.23205378  0.37416695  0.23294004    -0.19000
F1566       F  0.10016587  0.32268449  0.13612593    -0.19100
F1567       F  0.10297304  0.37107709  0.13114071    -0.22900
F1568       F  0.08495317  0.35105615  0.18405706    -0.24500
C1569       C  0.41554832  0.38199180  0.06068075    -0.11300
C1570       C  0.38933851  0.38771893  0.08003387     0.11300
C1571       C  0.38470405  0.41527817  0.09705938    -0.03100
C1572       C  0.40563991  0.43690494  0.09174236    -0.05900
C1573       C  0.43171724  0.43185079  0.07118363    -0.16600
C1574       C  0.43712902  0.40332475  0.05628944     0.02300
C1575       C  0.36668907  0.36474750  0.08105702     0.12200
C1576       C  0.35799324  0.42165210  0.12146514     0.62800
H1577       H  0.40186726  0.45803669  0.10457415     0.12200
C1578       C  0.46517749  0.39497654  0.03570227     0.55000
H1579       H  0.41883340  0.36043699  0.04882116     0.08000
C1580       C  0.34709035  0.36059877  0.05037784    -0.05800
C1581       C  0.32511414  0.33978766  0.05389476    -0.06500
C1582       C  0.32245000  0.32267885  0.08657717    -0.16100
C1583       C  0.34241654  0.32631171  0.11694069    -0.01700
C1584       C  0.36435057  0.34733355  0.11357962    -0.09200
C1585       C  0.34932900  0.37817054  0.01409673     0.65000
H1586       H  0.30970968  0.33660317  0.03093380     0.10500
C1587       C  0.34004432  0.30861259  0.15299757     0.63400
H1588       H  0.37975850  0.35056399  0.13650262     0.07900
F1589       F  0.46895269  0.41304781  0.00489943    -0.19600
F1590       F  0.46488673  0.36664276  0.02232211    -0.15800
F1591       F  0.48864575  0.39711865  0.06026472    -0.19300
F1592       F  0.35909717  0.40436178  0.15349078    -0.22700
F1593       F  0.33275462  0.41596012  0.10139255    -0.24200
F1594       F  0.35656639  0.45039769  0.13320131    -0.18200
F1595       F  0.35959074  0.31754934  0.18049968    -0.20600
F1596       F  0.34595017  0.27965743  0.14501307    -0.21800
F1597       F  0.31214961  0.31153428  0.16772938    -0.19000
F1598       F  0.32724792  0.37178455  0.98865325    -0.19100
F1599       F  0.37574072  0.37205281  0.99661550    -0.22900
F1600       F  0.34744100  0.40755285  0.02229973    -0.24500
C1601       C  0.39662981  0.09291558  0.01297166    -0.11300
C1602       C  0.40714227  0.11388428  0.03820628     0.11300
C1603       C  0.43613202  0.11108086  0.05222660    -0.03100
C1604       C  0.45308262  0.08633613  0.04192968    -0.05900
C1605       C  0.44174020  0.06422178  0.01887338    -0.16600
C1606       C  0.41353314  0.06825932  0.00261265     0.02300
C1607       C  0.38592306  0.13606177  0.05330752     0.12200
C1608       C  0.44880622  0.13372458  0.07875379     0.62800
H1609       H  0.47476928  0.08323012  0.05376555     0.12200
C1610       C  0.40095134  0.04659293  0.97474078     0.55000
H1611       H  0.37433999  0.09522948  0.00288546     0.08000
C1612       C  0.37612808  0.16059359  0.03235939    -0.05800
C1613       C  0.35480688  0.17947422  0.04855459    -0.06500
C1614       C  0.34235843  0.17414507  0.08439067    -0.16100
C1615       C  0.35326366  0.14990502  0.10580433    -0.01700
C1616       C  0.37430879  0.13111834  0.08932258    -0.09200
C1617       C  0.38767279  0.16638953  0.99279277     0.65000
H1618       H  0.34730233  0.19829720  0.03281608     0.10500
C1619       C  0.34386828  0.14392037  0.14640966     0.63400
H1620       H  0.38188505  0.11193500  0.10447083     0.07900
F1621       F  0.42180720  0.03856746  0.94814493    -0.19600
F1622       F  0.37715625  0.05833110  0.95539734    -0.15800
F1623       F  0.39187113  0.02222637  0.99391502    -0.19300
F1624       F  0.43414532  0.13382530  0.11299082    -0.22700
F1625       F  0.44615571  0.16098070  0.06254750    -0.24200
F1626       F  0.47811752  0.12827916  0.08612915    -0.18200
F1627       F  0.31529770  0.13481233  0.14700166    -0.20600
F1628       F  0.34655599  0.16882130  0.16816019    -0.21800
F1629       F  0.36094814  0.12232498  0.16320577    -0.19000
F1630       F  0.37797305  0.19304033  0.97907448    -0.19100
F1631       F  0.37833223  0.14506569  0.96812041    -0.22900
F1632       F  0.41785899  0.16631868  0.99318668    -0.24500
C1633       C  0.90440226  0.10808228  0.63756848    -0.11300
C1634       C  0.88215104  0.11015805  0.66473021     0.11300
C1635       C  0.88160511  0.08984324  0.69489860    -0.03100
C1636       C  0.90305284  0.06740164  0.69606891    -0.05900
C1637       C  0.92519271  0.06507352  0.66860929    -0.16600
C1638       C  0.92625816  0.08609160  0.63920086     0.02300
C1639       C  0.85856657  0.13262532  0.65944497     0.12200
C1640       C  0.85828866  0.09178237  0.72549246     0.62800
H1641       H  0.90249506  0.05116912  0.71824898     0.12200
C1642       C  0.94965347  0.08469984  0.60875411     0.55000
H1643       H  0.90418671  0.12368816  0.61461309     0.08000
C1644       C  0.86156870  0.16181312  0.67137372    -0.05800
C1645       C  0.83729349  0.18103991  0.66830782    -0.06500
C1646       C  0.81053235  0.17216735  0.65277433    -0.16100
C1647       C  0.80851229  0.14348268  0.63778914    -0.01700
C1648       C  0.83262022  0.12421044  0.64171526    -0.09200
C1649       C  0.89041620  0.17261383  0.68671732     0.65000
H1650       H  0.83893668  0.20313296  0.67866871     0.10500
C1651       C  0.78136437  0.13307710  0.61722643     0.63400
H1652       H  0.83121524  0.10200549  0.63165053     0.07900
F1653       F  0.97675549  0.08893817  0.62501758    -0.19600
F1654       F  0.94528674  0.10581971  0.58129409    -0.15800
F1655       F  0.94942951  0.05789379  0.59095022    -0.19300
F1656       F  0.83095769  0.08839843  0.70954512    -0.22700
F1657       F  0.85917280  0.11855824  0.74332519    -0.24200
F1658       F  0.86225673  0.07052912  0.75286541    -0.18200
F1659       F  0.78661350  0.10715314  0.59813828    -0.20600
F1660       F  0.77225846  0.15349228  0.59070672    -0.21800
F1661       F  0.75920843  0.12856156  0.64301292    -0.19000
F1662       F  0.88829926  0.20128960  0.69858916    -0.19100
F1663       F  0.91134836  0.17075027  0.65856320    -0.22900
F1664       F  0.89948898  0.15593840  0.71727278    -0.24500
C1665       C  0.91120567  0.87462029  0.77165567    -0.11300
C1666       C  0.88128025  0.88171950  0.77353714     0.11300
C1667       C  0.87144120  0.90974078  0.76208400    -0.03100
C1668       C  0.89195917  0.92955425  0.74841409    -0.05900
C1669       C  0.92198079  0.92256180  0.74609397    -0.16600
C1670       C  0.93184443  0.89446876  0.75791420     0.02300
C1671       C  0.86083864  0.86007734  0.78973300     0.12200
C1672       C  0.83930242  0.91863995  0.76401247     0.62800
H1673       H  0.88459433  0.95097882  0.73948531     0.12200
C1674       C  0.96374174  0.88499274  0.75515502     0.55000
H1675       H  0.91827928  0.85328421  0.78130278     0.08000
C1676       C  0.84930550  0.83692597  0.76818723    -0.05800
C1677       C  0.82896728  0.81835233  0.78533991    -0.06500
C1678       C  0.81946809  0.82244492  0.82307254    -0.16100
C1679       C  0.83134219  0.84586291  0.84455545    -0.01700
C1680       C  0.85230162  0.86365259  0.82756851    -0.09200
C1681       C  0.85868526  0.83178942  0.72736634     0.65000
H1682       H  0.82010846  0.80054496  0.76910111     0.10500
C1683       C  0.82214153  0.85266882  0.88516645     0.63400
H1684       H  0.86173093  0.88137019  0.84342876     0.07900
F1685       F  0.96778805  0.85580869  0.76356132    -0.19600
F1686       F  0.98024907  0.90074654  0.78049965    -0.15800
F1687       F  0.97382618  0.88941996  0.71869914    -0.19300
F1688       F  0.82975471  0.91810592  0.80117250    -0.22700
F1689       F  0.82289136  0.89971678  0.74261169    -0.24200
F1690       F  0.83429381  0.94644934  0.75022957    -0.18200
F1691       F  0.83852599  0.87453654  0.90118451    -0.20600
F1692       F  0.82574208  0.82823670  0.90761780    -0.21800
F1693       F  0.79322959  0.86197115  0.88567809    -0.19000
F1694       F  0.84323569  0.80965200  0.71042535    -0.19100
F1695       F  0.88803925  0.82422980  0.72641132    -0.22900
F1696       F  0.85409702  0.85673597  0.70621086    -0.24500
C1697       C  0.09497050  0.89304936  0.73878663    -0.11300
C1698       C  0.11067156  0.89492260  0.77304501     0.11300
C1699       C  0.10687881  0.91970813  0.79654340    -0.03100
C1700       C  0.08652370  0.94130497  0.78564793    -0.05900
C1701       C  0.07034091  0.93940540  0.75180725    -0.16600
C1702       C  0.07489960  0.91515431  0.72748522     0.02300
C1703       C  0.13150442  0.87108156  0.78379511     0.12200
C1704       C  0.12444470  0.92351917  0.83289773     0.62800
H1705       H  0.08302976  0.96012466  0.80374895     0.12200
C1706       C  0.05984268  0.91337707  0.68917402     0.55000
H1707       H  0.09876551  0.87419457  0.72086245     0.08000
C1708       C  0.12233412  0.84595957  0.80325145    -0.05800
C1709       C  0.14371323  0.82632911  0.81736158    -0.06500
C1710       C  0.17362777  0.83160664  0.81350014    -0.16100
C1711       C  0.18275928  0.85610825  0.79273580    -0.01700
C1712       C  0.16137588  0.87519020  0.77750731    -0.09200
C1713       C  0.09017408  0.84042777  0.80997410     0.65000
H1714       H  0.13725619  0.80724015  0.83292821     0.10500
C1715       C  0.21490182  0.86205975  0.78680243     0.63400
H1716       H  0.16781236  0.89434425  0.76206632     0.07900
F1717       F  0.03004396  0.91115699  0.69400901    -0.19600
F1718       F  0.06951441  0.88947093  0.66844487    -0.15800
F1719       F  0.06554771  0.93809176  0.66838395    -0.19300
F1720       F  0.15375180  0.92573756  0.82433242    -0.22700
F1721       F  0.12069151  0.90001012  0.85660244    -0.24200
F1722       F  0.11599868  0.94838399  0.85256225    -0.18200
F1723       F  0.22825392  0.83839876  0.76924392    -0.20600
F1724       F  0.22829988  0.86696521  0.82137943    -0.21800
F1725       F  0.21896869  0.88626234  0.76428645    -0.19000
F1726       F  0.08605171  0.81511892  0.83027737    -0.19100
F1727       F  0.07588378  0.83786139  0.77555739    -0.22900
F1728       F  0.07768065  0.86322663  0.83025636    -0.24500
C1729       C  0.14946678  0.15252237  0.62010757    -0.11300
C1730       C  0.13952631  0.13995191  0.65375231     0.11300
C1731       C  0.15362414  0.14641066  0.68856030    -0.03100
C1732       C  0.17643727  0.16649122  0.68867317    -0.05900
C1733       C  0.18626272  0.17934841  0.65512451    -0.16600
C1734       C  0.17321721  0.17158893  0.62007226     0.02300
C1735       C  0.11645344  0.11766935  0.65152461     0.12200
C1736       C  0.14565331  0.13094838  0.72506702     0.62800
H1737       H  0.18766425  0.17137768  0.71485909     0.12200
C1738       C  0.18551037  0.18193480  0.58272972     0.55000
H1739       H  0.13913858  0.14634822  0.59367669     0.08000
C1740       C  0.08626405  0.12480791  0.65334187    -0.05800
C1741       C  0.06626323  0.10220296  0.65837787    -0.06500
C1742       C  0.07574198  0.07304608  0.66135054    -0.16100
C1743       C  0.10560748  0.06583807  0.65457802    -0.01700
C1744       C  0.12546205  0.08845088  0.64983085    -0.09200
C1745       C  0.07546132  0.15613787  0.65092709     0.65000
H1746       H  0.04328048  0.10731864  0.66234104     0.10500
C1747       C  0.11662313  0.03452425  0.65184456     0.63400
H1748       H  0.14857048  0.08354500  0.64669577     0.07900
F1749       F  0.18321278  0.21181514  0.58084795    -0.19600
F1750       F  0.17074172  0.17056924  0.55190259    -0.15800
F1751       F  0.21456971  0.17336094  0.57998941    -0.19300
F1752       F  0.15317291  0.10177412  0.72207874    -0.22700
F1753       F  0.11598859  0.13370786  0.73172349    -0.24200
F1754       F  0.16017287  0.14218433  0.75617343    -0.18200
F1755       F  0.14497633  0.03278390  0.63830791    -0.20600
F1756       F  0.09909816  0.01922743  0.62712865    -0.21800
F1757       F  0.11636321  0.02151066  0.68712673    -0.19000
F1758       F  0.04528368  0.15830729  0.65260196    -0.19100
F1759       F  0.08427225  0.16806395  0.61694644    -0.22900
F1760       F  0.08681317  0.17210878  0.68060007    -0.24500
C1761       C  0.99986702  0.97723584  0.41295966    -0.11300
C1762       C  0.99445800  0.00400589  0.43098274     0.11300
C1763       C  0.99454861  0.03002606  0.40967584    -0.03100
C1764       C  0.99904853  0.02818649  0.37031586    -0.05900
C1765       C  0.00436074  0.00142243  0.35215227    -0.16600
C1766       C  0.00525852  0.97545248  0.37373427     0.02300
C1767       C  0.99126812  0.00418411  0.47279725     0.12200
C1768       C  0.99099311  0.05961275  0.42858498     0.62800
H1769       H  0.99919309  0.04780727  0.35339425     0.12200
C1770       C  0.01345528  0.94630468  0.35596860     0.55000
H1771       H  0.00053732  0.95777808  0.43020784     0.08000
C1772       C  0.96458404  0.99817610  0.49079570    -0.05800
C1773       C  0.96370531  0.99801315  0.53070078    -0.06500
C1774       C  0.98863992  0.00341949  0.55315399    -0.16100
C1775       C  0.01542612  0.00987832  0.53448951    -0.01700
C1776       C  0.01610516  0.00966230  0.49457688    -0.09200
C1777       C  0.93733061  0.99154884  0.46785357     0.65000
H1778       H  0.94328463  0.99339415  0.54461055     0.10500
C1779       C  0.04345953  0.01681832  0.55568439     0.63400
H1780       H  0.03622961  0.01384698  0.47964735     0.07900
F1781       F  0.01597727  0.92450014  0.38286184    -0.19600
F1782       F  0.04002373  0.94821796  0.33761944    -0.15800
F1783       F  0.99228923  0.93837065  0.33019250    -0.19300
F1784       F  0.01446466  0.06440550  0.45238188    -0.22700
F1785       F  0.96555056  0.06084984  0.44957724    -0.24200
F1786       F  0.98975716  0.08189193  0.40225609    -0.18200
F1787       F  0.05129742  0.99395306  0.57925013    -0.20600
F1788       F  0.03948887  0.04201446  0.57673292    -0.21800
F1789       F  0.06659835  0.02128528  0.53128065    -0.19000
F1790       F  0.91323172  0.98779555  0.49084604    -0.19100
F1791       F  0.94182084  0.96630253  0.44712384    -0.22900
F1792       F  0.93097800  0.01412204  0.44318091    -0.24500
C1793       C  0.99953940  0.97639210  0.91210740    -0.11300
C1794       C  0.00236635  0.00267696  0.93181054     0.11300
C1795       C  0.00614055  0.02881242  0.91169281    -0.03100
C1796       C  0.00602234  0.02786501  0.87190638    -0.05900
C1797       C  0.00299833  0.00165579  0.85174829    -0.16600
C1798       C  0.99986262  0.97526439  0.87217826     0.02300
C1799       C  0.00165179  0.00212933  0.97373844     0.12200
C1800       C  0.01094972  0.05744293  0.93220896     0.62800
H1801       H  0.00874583  0.04776655  0.85607917     0.12200
C1802       C  0.99756905  0.94598698  0.85246157     0.55000
H1803       H  0.99707207  0.95670926  0.92849500     0.08000
C1804       C  0.97505164  0.00384305  0.99379989    -0.05800
C1805       C  0.97604272  0.00419527  0.03356229    -0.06500
C1806       C  0.00252723  0.00136177  0.05383810    -0.16100
C1807       C  0.02918799  0.99873862  0.03345978    -0.01700
C1808       C  0.02817688  0.99942921  0.99350076    -0.09200
C1809       C  0.94574570  0.00428921  0.97330288     0.65000
H1810       H  0.95578896  0.00607500  0.04925613     0.10500
C1811       C  0.05838874  0.99411303  0.05328117     0.63400
H1812       H  0.04812847  0.99766151  0.97713354     0.07900
F1813       F  0.97170293  0.94509956  0.83223874    -0.19600
F1814       F  0.99774565  0.92318977  0.87808010    -0.15800
F1815       F  0.02093106  0.94166207  0.82813816    -0.19300
F1816       F  0.03605262  0.05539497  0.95398570    -0.22700
F1817       F  0.98753611  0.06399748  0.95557490    -0.24200
F1818       F  0.01405074  0.08026598  0.90711046    -0.18200
F1819       F  0.08086855  0.98928880  0.02765765    -0.20600
F1820       F  0.05719351  0.97013302  0.07678971    -0.21800
F1821       F  0.06504801  0.01844838  0.07446996    -0.19000
F1822       F  0.92254835  0.00620454  0.99837705    -0.19100
F1823       F  0.94291507  0.97899584  0.95244824    -0.22900
F1824       F  0.94371975  0.02778304  0.94904360    -0.24500
C1825       C  0.92371602  0.11120411  0.14298897    -0.11300
C1826       C  0.89629588  0.10879496  0.15994555     0.11300
C1827       C  0.88913400  0.08303626  0.17932922    -0.03100
C1828       C  0.91026277  0.06054813  0.18184778    -0.05900
C1829       C  0.93796629  0.06273140  0.16497930    -0.16600
C1830       C  0.94488779  0.08863892  0.14510464     0.02300
C1831       C  0.87493141  0.13322017  0.15600207     0.12200
C1832       C  0.85902886  0.07911919  0.19650734     0.62800
H1833       H  0.90503324  0.04070654  0.19659237     0.12200
C1834       C  0.97397510  0.09252032  0.12526463     0.55000
H1835       H  0.92827286  0.13103465  0.12780991     0.08000
C1836       C  0.87493814  0.15755375  0.18070655    -0.05800
C1837       C  0.85138381  0.17765194  0.17884427    -0.06500
C1838       C  0.82846822  0.17399348  0.15285871    -0.16100
C1839       C  0.82999245  0.15115681  0.12586462    -0.01700
C1840       C  0.85341528  0.13107923  0.12787795    -0.09200
C1841       C  0.89958388  0.16197177  0.20892034     0.65000
H1842       H  0.85020611  0.19586302  0.19838748     0.10500
C1843       C  0.80694289  0.14798889  0.09515461     0.63400
H1844       H  0.85450182  0.11277549  0.10847661     0.07900
F1845       F  0.99607191  0.09396521  0.15197929    -0.19600
F1846       F  0.97436554  0.11785861  0.10415505    -0.15800
F1847       F  0.97941295  0.06952488  0.10072449    -0.19300
F1848       F  0.83818463  0.07900130  0.16804723    -0.22700
F1849       F  0.85267130  0.10158245  0.22149687    -0.24200
F1850       F  0.85719814  0.05321163  0.21616228    -0.18200
F1851       F  0.81506488  0.12729708  0.06838896    -0.20600
F1852       F  0.80266671  0.17420754  0.07657921    -0.21800
F1853       F  0.78096977  0.13957807  0.11122878    -0.19000
F1854       F  0.89517942  0.18681405  0.23059722    -0.19100
F1855       F  0.92564180  0.16470827  0.18963969    -0.22900
F1856       F  0.90181314  0.13845649  0.23317892    -0.24500
C1857       C  0.88519369  0.82991512  0.30017897    -0.11300
C1858       C  0.87432212  0.85682187  0.28720611     0.11300
C1859       C  0.84395612  0.86319603  0.28909599    -0.03100
C1860       C  0.82562518  0.84290401  0.30620880    -0.05900
C1861       C  0.83661691  0.81636123  0.32018351    -0.16600
C1862       C  0.86678780  0.80945098  0.31688345     0.02300
C1863       C  0.89534127  0.87806907  0.27213924     0.12200
C1864       C  0.83098632  0.89119815  0.27297094     0.62800
H1865       H  0.80240874  0.84749782  0.30864482     0.12200
C1866       C  0.87959322  0.78110454  0.33215568     0.55000
H1867       H  0.90838620  0.82529207  0.29755886     0.08000
C1868       C  0.91207532  0.89587884  0.29639483    -0.05800
C1869       C  0.93040737  0.91661391  0.28007290    -0.06500
C1870       C  0.93271292  0.91972151  0.24056604    -0.16100
C1871       C  0.91687088  0.90089104  0.21634095    -0.01700
C1872       C  0.89844340  0.88031025  0.23275102    -0.09200
C1873       C  0.91050495  0.89294944  0.33928191     0.65000
H1874       H  0.94272065  0.93098912  0.29811017     0.10500
C1875       C  0.91993319  0.90178248  0.17341351     0.63400
H1876       H  0.88594507  0.86588876  0.21491667     0.07900
F1877       F  0.90974526  0.77999685  0.32929664    -0.19600
F1878       F  0.86865217  0.75796546  0.31183482    -0.15800
F1879       F  0.87239091  0.77815303  0.37005021    -0.19300
F1880       F  0.83525112  0.89182600  0.23415395    -0.22700
F1881       F  0.84422378  0.91490478  0.28935416    -0.24200
F1882       F  0.80124684  0.89368256  0.27961978    -0.18200
F1883       F  0.90580068  0.87897073  0.15598896    -0.20600
F1884       F  0.94914951  0.89984329  0.16364379    -0.21800
F1885       F  0.90788925  0.92738874  0.15944297    -0.19000
F1886       F  0.92745339  0.91326544  0.35764225    -0.19100
F1887       F  0.92050751  0.86561672  0.34993862    -0.22900
F1888       F  0.88197627  0.89682132  0.35133569    -0.24500
C1889       C  0.16277258  0.85751083  0.26134121    -0.11300
C1890       C  0.14350521  0.87215240  0.28597676     0.11300
C1891       C  0.14517228  0.86688437  0.32549677    -0.03100
C1892       C  0.16727624  0.84799271  0.33926526    -0.05900
C1893       C  0.18749876  0.83416898  0.31487267    -0.16600
C1894       C  0.18497332  0.83861186  0.27507620     0.02300
C1895       C  0.12296531  0.89441982  0.27013048     0.12200
C1896       C  0.12427234  0.88195699  0.35306138     0.62800
H1897       H  0.16919702  0.84414082  0.36949395     0.12200
C1898       C  0.20628753  0.82463474  0.24729155     0.55000
H1899       H  0.16070350  0.86169370  0.23120778     0.08000
C1900       C  0.13155214  0.92340756  0.26499656    -0.05800
C1901       C  0.11009037  0.94454805  0.25613936    -0.06500
C1902       C  0.08042672  0.93761883  0.25101410    -0.16100
C1903       C  0.07261386  0.90769826  0.25196376    -0.01700
C1904       C  0.09417940  0.88671191  0.26201177    -0.09200
C1905       C  0.16340175  0.93181869  0.26837748     0.65000
H1906       H  0.11656203  0.96693463  0.25345047     0.10500
C1907       C  0.04193522  0.89750590  0.24321305     0.63400
H1908       H  0.08858836  0.86406608  0.26492304     0.07900
F1909       F  0.20194380  0.83469597  0.21066493    -0.19600
F1910       F  0.20278368  0.79486197  0.24689197    -0.15800
F1911       F  0.23457721  0.83093451  0.25788835    -0.19300
F1912       F  0.09569556  0.87647175  0.34302192    -0.22700
F1913       F  0.12847934  0.91162534  0.35240953    -0.24200
F1914       F  0.12845123  0.87239048  0.38993381    -0.18200
F1915       F  0.03364791  0.90656120  0.20727679    -0.20600
F1916       F  0.02257764  0.90855407  0.26986428    -0.21800
F1917       F  0.04017085  0.86749842  0.24392608    -0.19000
F1918       F  0.16695546  0.96145009  0.26426630    -0.19100
F1919       F  0.17939483  0.91783952  0.24026706    -0.22900
F1920       F  0.17456117  0.92385027  0.30341544    -0.24500
C1921       C  0.17977308  0.12890965  0.17383601    -0.11300
C1922       C  0.15275003  0.13885234  0.16007304     0.11300
C1923       C  0.14949358  0.16809229  0.14825265    -0.03100
C1924       C  0.17420746  0.18601457  0.14855963    -0.05900
C1925       C  0.20181473  0.17602555  0.16163562    -0.16600
C1926       C  0.20436077  0.14679179  0.17537392     0.02300
C1927       C  0.12786738  0.11849713  0.16221901     0.12200
C1928       C  0.11990329  0.18036706  0.13604704     0.62800
H1929       H  0.17192945  0.20823265  0.13882092     0.12200
C1930       C  0.23232683  0.13405960  0.19259604     0.55000
H1931       H  0.18123768  0.10670126  0.18389751     0.08000
C1932       C  0.12355152  0.09603691  0.13517586    -0.05800
C1933       C  0.10151102  0.07560348  0.14178934    -0.06500
C1934       C  0.08420252  0.07688351  0.17459015    -0.16100
C1935       C  0.08807383  0.09980426  0.20102241    -0.01700
C1936       C  0.11032760  0.11978538  0.19473252    -0.09200
C1937       C  0.14266228  0.09320798  0.10012994     0.65000
H1938       H  0.09846442  0.05770301  0.12223311     0.10500
C1939       C  0.07007003  0.10349458  0.23694371     0.63400
H1940       H  0.11437124  0.13648426  0.21579067     0.07900
F1941       F  0.25361638  0.13144887  0.16497095    -0.19600
F1942       F  0.22833138  0.10664601  0.20765172    -0.15800
F1943       F  0.24185157  0.15167781  0.22183150    -0.19300
F1944       F  0.10040697  0.17886825  0.16583854    -0.22700
F1945       F  0.10928942  0.16458194  0.10575578    -0.24200
F1946       F  0.12143229  0.20916946  0.12509747    -0.18200
F1947       F  0.08649302  0.09415521  0.26772279    -0.20600
F1948       F  0.04436945  0.08823271  0.23585597    -0.21800
F1949       F  0.06263216  0.13255391  0.24203931    -0.19000
F1950       F  0.13475650  0.06994186  0.07756754    -0.19100
F1951       F  0.17153518  0.08898173  0.11063068    -0.22900
F1952       F  0.14017031  0.11820324  0.07862933    -0.24500
loop_ 
_geom_bond_atom_site_label_1 
_geom_bond_atom_site_label_2 
_geom_bond_distance 
_geom_bond_site_symmetry_2 
_ccdc_geom_bond_type 
O1           Ni7   1.929       .  S
O1           C22   1.269       .  A
O2          Ni25   1.921       .  S
O2           C11   1.270       .  A
O3           Ni7   1.909       .  S
O3          Ni25   1.915   1_665  S
O3          Ni19   1.910       .  S
O3           H26   0.966   1_655  S
C4           O21   1.274   1_445  A
C4           O13   1.275       .  A
C4         C1765   1.476       .  S
O5          Ni24   1.923       .  S
O5           C11   1.269       .  A
O6          Ni24   1.908   1_565  S
O6            C8   1.271       .  A
Ni7          O10   1.916       .  S
Ni7          O12   1.906   1_565  S
C8           O18   1.271       .  A
C8         C1902   1.503       .  S
O9          Ni25   1.920       .  S
O9           C15   1.276   1_545  A
O10          C15   1.275   1_655  A
C11        C1934   1.477       .  S
O12          C14   1.270       .  A
O13         Ni24   1.918       .  S
C14          O20   1.271       .  A
C14        C1829   1.491       .  S
C15        C1806   1.487   1_565  S
H16          O17   0.966       .  S
O17         Ni25   1.918       .  S
O17         Ni19   1.907   1_445  S
O17         Ni24   1.907       .  S
O18         Ni19   1.930   1_455  S
Ni19         O23   1.912       .  S
Ni19         O21   1.919       .  S
O20         Ni25   1.932   1_655  S
C22          O23   1.269       .  A
C22        C1870   1.485       .  S
O27         Ni33   1.941       .  S
O27          C48   1.276       .  A
O28         Ni51   1.921       .  S
O28          C37   1.269       .  A
O29         Ni33   1.909       .  S
O29         Ni51   1.912   1_665  S
O29         Ni45   1.911       .  S
O29          H52   0.966       .  S
C30          O47   1.278   1_445  A
C30          O39   1.278       .  A
C30        C1797   1.485       .  S
O31         Ni50   1.926       .  S
O31          C37   1.268       .  A
O32         Ni50   1.899   1_565  S
O32          C34   1.267       .  A
Ni33         O36   1.938       .  S
Ni33         O38   1.914   1_565  S
C34          O44   1.274       .  A
C34        C1701   1.486       .  S
O35         Ni51   1.903       .  S
O35          C41   1.270   1_455  A
O36          C41   1.280   1_565  A
C37        C1742   1.486       .  S
O38          C40   1.270       .  A
O39         Ni50   1.915       .  S
C40          O46   1.273       .  A
C40        C1637   1.489       .  S
C41        C1774   1.500       .  S
H42          O43   0.966   1_655  S
O43         Ni51   1.906       .  S
O43         Ni45   1.906   1_445  S
O43         Ni50   1.899       .  S
O44         Ni45   1.939   1_455  S
Ni45         O49   1.916       .  S
Ni45         O47   1.927       .  S
O46         Ni51   1.939   1_655  S
C48          O49   1.271       .  A
C48        C1669   1.498       .  S
O53         Ni59   1.934       .  S
O53          C74   1.272       .  A
O54         Ni77   1.931       .  S
O54          C63   1.274       .  A
O55         Ni59   1.908       .  S
O55         Ni77   1.911       .  S
O55         Ni71   1.908       .  S
O55          H78   0.966       .  S
C56          O73   1.274       .  A
C56          O65   1.279       .  A
C56        C1509   1.489       .  S
O57         Ni76   1.929       .  S
O57          C63   1.269       .  A
O58         Ni76   1.907       .  S
O58          C60   1.266       .  A
Ni59         O62   1.922       .  S
Ni59         O64   1.910       .  S
C60          O70   1.277       .  A
C60        C1925   1.509       .  S
O61         Ni77   1.929       .  S
O61          C67   1.280       .  A
O62          C67   1.278       .  A
C63        C1614   1.504       .  S
O64          C66   1.269       .  A
O65         Ni76   1.934       .  S
C66          O72   1.274       .  A
C66        C1582   1.486       .  S
C67        C1486   1.497   1_554  S
H68          O69   0.965       .  S
O69         Ni77   1.918       .  S
O69         Ni71   1.906       .  S
O69         Ni76   1.903       .  S
O70         Ni71   1.943       .  S
Ni71         O75   1.914       .  S
Ni71         O73   1.914       .  S
O72         Ni77   1.939       .  S
C74          O75   1.268       .  A
C74        C1550   1.478       .  S
O79         Ni85   1.936       .  S
O79         C100   1.275       .  A
O80        Ni103   1.894       .  S
O80          C89   1.264       .  A
O81         Ni85   1.908       .  S
O81        Ni103   1.900       .  S
O81         Ni97   1.912       .  S
O81         H104   0.967       .  S
C82          O99   1.277       .  A
C82          O91   1.276       .  A
C82        C1477   1.479       .  S
O83        Ni102   1.934       .  S
O83          C89   1.274       .  A
O84        Ni102   1.914       .  S
O84          C86   1.269       .  A
Ni85         O88   1.934       .  S
Ni85         O90   1.906       .  S
C86          O96   1.274       .  A
C86        C1733   1.486       .  S
O87        Ni103   1.912       .  S
O87          C93   1.273       .  A
O88          C93   1.278       .  A
C89        C1445   1.490       .  S
O90          C92   1.269       .  A
O91        Ni102   1.927       .  S
C92          O98   1.273       .  A
C92        C1413   1.483       .  S
C93        C1518   1.490       .  S
H94          O95   0.965       .  S
O95        Ni103   1.906       .  S
O95         Ni97   1.900       .  S
O95        Ni102   1.910       .  S
O96         Ni97   1.942       .  S
Ni97        O101   1.901       .  S
Ni97         O99   1.925       .  S
O98        Ni103   1.935       .  S
C100        O101   1.267       .  A
C100       C1381   1.490       .  S
O105       Ni111   1.921       .  S
O105        C126   1.271       .  A
O106       Ni129   1.905       .  S
O106        C115   1.265       .  A
O107       Ni111   1.920       .  S
O107       Ni129   1.924       .  S
O107       Ni123   1.935       .  S
O107        H130   0.966       .  S
C108        O125   1.275       .  A
C108        O117   1.272       .  A
C108       C1221   1.492       .  S
O109       Ni128   1.937       .  S
O109        C115   1.273       .  A
O110       Ni128   1.908       .  S
O110        C112   1.271       .  A
Ni111       O114   1.936       .  S
Ni111       O116   1.903       .  S
C112        O122   1.278       .  A
C112       C1349   1.484       .  S
O113       Ni129   1.919       .  S
O113        C119   1.270       .  A
O114        C119   1.270       .  A
C115       C1893   1.489       .  S
O116        C118   1.271       .  A
O117       Ni128   1.930       .  S
C118        O124   1.274       .  A
C118       C1285   1.493       .  S
C119       C1262   1.507       .  S
H120        O121   0.963       .  S
O121       Ni129   1.911       .  S
O121       Ni123   1.916       .  S
O121       Ni128   1.919       .  S
O122       Ni123   1.945       .  S
Ni123       O127   1.938       .  S
Ni123       O125   1.919       .  S
O124       Ni129   1.947       .  S
C126        O127   1.274       .  A
C126       C1317   1.520       .  S
O131       Ni137   1.934       .  S
O131        C152   1.273       .  A
O132       Ni155   1.906       .  S
O132        C141   1.265       .  A
O133       Ni137   1.918       .  S
O133       Ni155   1.916       .  S
O133       Ni149   1.920       .  S
O133        H156   0.966       .  S
C134        O151   1.277       .  A
C134        O143   1.276       .  A
C134       C1253   1.489   1_556  S
O135       Ni154   1.942       .  S
O135        C141   1.273       .  A
O136       Ni154   1.910       .  S
O136        C138   1.271       .  A
Ni137       O140   1.934       .  S
Ni137       O142   1.907       .  S
C138        O148   1.272       .  A
C138       C1198   1.497       .  S
O139       Ni155   1.910       .  S
O139        C145   1.270       .  A
O140        C145   1.275       .  A
C141       C1710   1.479       .  S
O142        C144   1.269       .  A
O143       Ni154   1.932       .  S
C144        O150   1.273       .  A
C144       C1134   1.476       .  S
C145       C1230   1.486       .  S
H146        O147   0.973       .  S
O147       Ni155   1.909       .  S
O147       Ni149   1.907       .  S
O147       Ni154   1.915       .  S
O148       Ni149   1.929       .  S
Ni149       O153   1.914       .  S
Ni149       O151   1.923       .  S
O150       Ni155   1.932       .  S
C152        O153   1.270       .  A
C152       C1157   1.491       .  S
O157       Ni163   1.922       .  S
O157        C178   1.267   1_556  A
O158       Ni181   1.918       .  S
O158        C167   1.271       .  A
O159       Ni163   1.898       .  S
O159       Ni181   1.905   1_545  S
O159       Ni175   1.917   1_556  S
O159        H182   0.966       .  S
C160        O177   1.279   1_565  A
C160        O169   1.278       .  A
C160       C1038   1.480       .  S
O161       Ni180   1.925   1_556  S
O161        C167   1.271       .  A
O162       Ni180   1.908   1_545  S
O162        C164   1.267       .  A
Ni163       O166   1.919       .  S
Ni163       O168   1.905   1_545  S
C164        O174   1.274       .  A
C164       C1605   1.491       .  S
O165       Ni181   1.932       .  S
O165        C171   1.281       .  A
O166        C171   1.275   1_545  A
C167       C1189   1.486       .  S
O168        C170   1.268       .  A
O169       Ni180   1.927       .  S
C170        O176   1.276       .  A
C170       C1061   1.495       .  S
C171        C997   1.493       .  S
H172        O173   0.966   1_554  S
O173       Ni181   1.921       .  S
O173       Ni175   1.903   1_566  S
O173       Ni180   1.901   1_556  S
O174       Ni175   1.940       .  S
Ni175       O179   1.914       .  S
Ni175       O177   1.928       .  S
O176       Ni181   1.948       .  S
C178        O179   1.270       .  A
C178       C1102   1.489       .  S
O183       Ni189   1.943       .  S
O183        C204   1.276       .  A
O184       Ni207   1.902       .  S
O184        C193   1.265       .  A
O185       Ni189   1.902       .  S
O185       Ni207   1.896   1_565  S
O185       Ni201   1.903       .  S
O185        H208   0.966       .  S
C186        O203   1.272       .  A
C186        O195   1.276   1_565  A
C186       C1029   1.474       .  S
O187       Ni206   1.930       .  S
O187        C193   1.273       .  A
O188       Ni206   1.909   1_565  S
O188        C190   1.268       .  A
Ni189       O192   1.928       .  S
Ni189       O194   1.925   1_565  S
C190        O200   1.276       .  A
C190       C1358   1.494       .  S
O191       Ni207   1.926       .  S
O191        C197   1.279   1_545  A
O192        C197   1.278       .  A
C193       C1454   1.489       .  S
O194        C196   1.273       .  A
O195       Ni206   1.929       .  S
C196        O202   1.271       .  A
C196        C965   1.496       .  S
C197       C1006   1.480       .  S
H198        O199   0.966       .  S
O199       Ni207   1.914       .  S
O199       Ni201   1.905   1_545  S
O199       Ni206   1.908       .  S
O200       Ni201   1.943       .  S
Ni201       O205   1.898       .  S
Ni201       O203   1.913       .  S
O202       Ni207   1.933       .  S
C204        O205   1.267       .  A
C204        C942   1.491       .  S
O209       Ni215   1.937       .  S
O209        C230   1.273       .  A
O210       Ni233   1.911       .  S
O210        C219   1.267       .  A
O211       Ni215   1.918       .  S
O211       Ni233   1.915       .  S
O211       Ni227   1.917       .  S
O211        H234   0.966       .  S
C212        O229   1.276       .  A
C212        O221   1.278       .  A
C212        C837   1.508       .  S
O213       Ni232   1.925       .  S
O213        C219   1.269       .  A
O214       Ni232   1.911       .  S
O214        C216   1.268       .  A
Ni215       O218   1.936       .  S
Ni215       O220   1.908       .  S
C216        O226   1.270       .  A
C216        C869   1.479       .  S
O217       Ni233   1.907       .  S
O217        C223   1.272       .  A
O218        C223   1.276       .  A
C219        C910   1.481       .  S
O220        C222   1.268       .  A
O221       Ni232   1.924       .  S
C222        O228   1.273       .  A
C222        C933   1.483       .  S
C223        C814   1.485       .  S
H224        O225   0.966       .  S
O225       Ni233   1.910       .  S
O225       Ni227   1.900       .  S
O225       Ni232   1.909       .  S
O226       Ni227   1.929       .  S
Ni227       O231   1.898       .  S
Ni227       O229   1.925       .  S
O228       Ni233   1.937       .  S
C230        O231   1.264       .  A
C230       C1861   1.475       .  S
O235       Ni241   1.931       .  S
O235        C256   1.267       .  A
O236       Ni259   1.914       .  S
O236        C245   1.268       .  A
O237       Ni241   1.916       .  S
O237       Ni259   1.912       .  S
O237       Ni253   1.907       .  S
O237        H260   0.966       .  S
C238        O255   1.268       .  A
C238        O247   1.276       .  A
C238        C805   1.483       .  S
O239       Ni258   1.948       .  S
O239        C245   1.277       .  A
O240       Ni258   1.911       .  S
O240        C242   1.273       .  A
Ni241       O244   1.929       .  S
Ni241       O246   1.906       .  S
C242        O252   1.276       .  A
C242        C741   1.504       .  S
O243       Ni259   1.916       .  S
O243        C249   1.273       .  A
O244        C249   1.276       .  A
C245        C773   1.499       .  S
O246        C248   1.267       .  A
O247       Ni258   1.939       .  S
C248        O254   1.275       .  A
C248       C1070   1.488       .  S
C249        C846   1.475   1_556  S
H250        O251   0.966       .  S
O251       Ni259   1.920       .  S
O251       Ni253   1.923       .  S
O251       Ni258   1.919       .  S
O252       Ni253   1.948       .  S
Ni253       O257   1.927       .  S
Ni253       O255   1.903       .  S
O254       Ni259   1.942       .  S
C256        O257   1.271       .  A
C256       C1678   1.504       .  S
O261       Ni267   1.919       .  S
O261        C282   1.268       .  A
O262       Ni285   1.906       .  S
O262        C271   1.265       .  A
O263       Ni267   1.906       .  S
O263       Ni285   1.903       .  S
O263       Ni279   1.907       .  S
O263        H286   0.966       .  S
C264        O281   1.273       .  A
C264        O273   1.275       .  A
C264        C613   1.478   1_554  S
O265       Ni284   1.935       .  S
O265        C271   1.275       .  A
O266       Ni284   1.903       .  S
O266        C268   1.267       .  A
Ni267       O270   1.910       .  S
Ni267       O272   1.904       .  S
C268        O278   1.276       .  A
C268        C718   1.495       .  S
O269       Ni285   1.930       .  S
O269        C275   1.279       .  A
O270        C275   1.273       .  A
C271        C686   1.501       .  S
O272        C274   1.266       .  A
O273       Ni284   1.933       .  S
C274        O280   1.268       .  A
C274       C1838   1.472       .  S
C275        C645   1.476       .  S
H276        O277   0.966       .  S
O277       Ni285   1.918       .  S
O277       Ni279   1.912       .  S
O277       Ni284   1.911       .  S
O278       Ni279   1.936       .  S
Ni279       O283   1.917       .  S
Ni279       O281   1.911       .  S
O280       Ni285   1.921       .  S
C282        O283   1.269       .  A
C282       C1093   1.486       .  S
O287       Ni293   1.935       .  S
O287        C308   1.273       .  A
O288       Ni311   1.908       .  S
O288        C297   1.266       .  A
O289       Ni293   1.911       .  S
O289       Ni311   1.911       .  S
O289       Ni305   1.920       .  S
O289        H312   0.966       .  S
C290        O307   1.279       .  A
C290        O299   1.276       .  A
C290        C654   1.490       .  S
O291       Ni310   1.923       .  S
O291        C297   1.267       .  A
O292       Ni310   1.904       .  S
O292        C294   1.266       .  A
Ni293       O296   1.933       .  S
Ni293       O298   1.904       .  S
C294        O304   1.273       .  A
C294        C590   1.478       .  S
O295       Ni311   1.911       .  S
O295        C301   1.270       .  A
O296        C301   1.278       .  A
C297        C558   1.476       .  S
O298        C300   1.267       .  A
O299       Ni310   1.916       .  S
C300        O306   1.275       .  A
C300       C1646   1.493       .  S
C301        C622   1.501       .  S
H302        O303   0.966       .  S
O303       Ni311   1.904       .  S
O303       Ni305   1.910       .  S
O303       Ni310   1.910       .  S
O304       Ni305   1.933       .  S
Ni305       O309   1.923       .  S
Ni305       O307   1.930       .  S
O306       Ni311   1.938       .  S
C308        O309   1.272       .  A
C308        C974   1.484       .  S
O313       Ni319   1.943       .  S
O313        C334   1.274       .  A
O314       Ni337   1.923       .  S
O314        C323   1.272       .  A
O315       Ni319   1.904       .  S
O315       Ni337   1.911       .  S
O315       Ni331   1.911   1_554  S
O315        H338   0.966       .  S
C316        O333   1.277       .  A
C316        O325   1.278       .  A
C316        C485   1.482       .  S
O317       Ni336   1.922   1_554  S
O317        C323   1.268       .  A
O318       Ni336   1.910       .  S
O318        C320   1.270       .  A
Ni319       O322   1.928       .  S
Ni319       O324   1.915       .  S
C320        O330   1.271       .  A
C320        C782   1.512       .  S
O321       Ni337   1.919       .  S
O321        C327   1.276       .  A
O322        C327   1.278       .  A
C323        C709   1.490       .  S
O324        C326   1.273       .  A
O325       Ni336   1.921       .  S
C326        O332   1.274       .  A
C326       C1573   1.511       .  S
C327        C517   1.480       .  S
H328        O329   0.966   1_556  S
O329       Ni337   1.913       .  S
O329       Ni331   1.899   1_554  S
O329       Ni336   1.898   1_554  S
O330       Ni331   1.940       .  S
Ni331       O335   1.900       .  S
Ni331       O333   1.922       .  S
O332       Ni337   1.943       .  S
C334        O335   1.265   1_554  A
C334       C1166   1.478   1_554  S
O339       Ni345   1.928       .  S
O339        C360   1.272       .  A
O340       Ni363   1.903       .  S
O340        C349   1.267       .  A
O341       Ni345   1.903       .  S
O341       Ni363   1.898       .  S
O341       Ni357   1.915       .  S
O341        H364   0.966       .  S
C342        O359   1.280       .  A
C342        O351   1.275       .  A
C342        C494   1.486       .  S
O343       Ni362   1.930       .  S
O343        C349   1.270       .  A
O344       Ni362   1.908       .  S
O344        C346   1.268       .  A
Ni345       O348   1.928       .  S
Ni345       O350   1.917       .  S
C346        O356   1.273       .  A
C346        C581   1.490       .  S
O347       Ni363   1.917       .  S
O347        C353   1.275       .  A
O348        C353   1.280       .  A
C349        C901   1.483       .  S
O350        C352   1.269       .  A
O351       Ni362   1.923       .  S
C352        O358   1.277       .  A
C352       C1326   1.503       .  S
C353        C526   1.492       .  S
H354        O355   0.966       .  S
O355       Ni363   1.913       .  S
O355       Ni357   1.907       .  S
O355       Ni362   1.907       .  S
O356       Ni357   1.940       .  S
Ni357       O361   1.914       .  S
Ni357       O359   1.924       .  S
O358       Ni363   1.945       .  S
C360        O361   1.269       .  A
C360       C1422   1.474       .  S
O365       Ni371   1.919       .  S
O365        C386   1.269       .  A
O366       Ni389   1.904   1_655  S
O366        C375   1.263       .  A
O367       Ni371   1.904       .  S
O367       Ni389   1.899       .  S
O367       Ni383   1.919       .  S
O367        H390   0.966       .  S
C368        O385   1.279       .  A
C368        O377   1.275   1_455  A
C368        C421   1.476       .  S
O369       Ni388   1.932       .  S
O369        C375   1.273       .  A
O370       Ni388   1.911       .  S
O370        C372   1.272       .  A
Ni371       O374   1.919       .  S
Ni371       O376   1.916       .  S
C372        O382   1.271       .  A
C372        C878   1.508       .  S
O373       Ni389   1.919       .  S
O373        C379   1.276       .  A
O374        C379   1.275       .  A
C375        C677   1.499       .  S
O376        C378   1.269       .  A
O377       Ni388   1.921       .  S
C378        O384   1.271       .  A
C378       C1541   1.490       .  S
C379        C462   1.474       .  S
H380        O381   0.966       .  S
O381       Ni389   1.910       .  S
O381       Ni383   1.913       .  S
O381       Ni388   1.906   1_455  S
O382       Ni383   1.934   1_655  S
Ni383       O387   1.923       .  S
Ni383       O385   1.928       .  S
O384       Ni389   1.924       .  S
C386        O387   1.272       .  A
C386       C1294   1.483       .  S
O391       Ni397   1.922       .  S
O391        C412   1.270       .  A
O392       Ni415   1.911       .  S
O392        C401   1.269       .  A
O393       Ni397   1.904       .  S
O393       Ni415   1.903   1_455  S
O393       Ni409   1.911       .  S
O393        H416   0.966   1_455  S
C394        O411   1.274   1_655  A
C394        O403   1.277       .  A
C394        C453   1.485       .  S
O395       Ni414   1.928       .  S
O395        C401   1.271       .  A
O396       Ni414   1.913       .  S
O396        C398   1.270       .  A
Ni397       O400   1.921       .  S
Ni397       O402   1.903       .  S
C398        O408   1.277       .  A
C398        C750   1.487       .  S
O399       Ni415   1.931       .  S
O399        C405   1.280   1_655  A
O400        C405   1.279       .  A
C401        C549   1.476       .  S
O402        C404   1.265       .  A
O403       Ni414   1.926       .  S
C404        O410   1.272       .  A
C404       C1390   1.478       .  S
C405        C430   1.506       .  S
H406        O407   0.966   1_455  S
O407       Ni415   1.923       .  S
O407       Ni409   1.910   1_655  S
O407       Ni414   1.910       .  S
O408       Ni409   1.945   1_655  S
Ni409       O413   1.924       .  S
Ni409       O411   1.914       .  S
O410       Ni415   1.935   1_455  S
C412        O413   1.271       .  A
C412       C1125   1.500       .  S
C417        C418   1.404       .  A
C417        C422   1.407       .  A
C417        H427   1.083   1_455  S
C418        C423   1.491       .  S
C418        C419   1.419       .  A
C419        C420   1.410       .  A
C419        C424   1.519       .  S
C420        C421   1.402       .  A
C420        H425   1.083       .  S
C421        C422   1.413       .  A
C422        C426   1.515   1_455  S
C423        C428   1.413       .  A
C423        C432   1.402   1_455  A
C424        F440   1.382       .  S
C424        F441   1.383       .  S
C424        F442   1.384       .  S
C426        F437   1.384       .  S
C426        F438   1.383       .  S
C426        F439   1.382   1_655  S
C428        C429   1.405       .  A
C428        C433   1.521       .  S
C429        C430   1.413       .  A
C429        H434   1.081       .  S
C430        C431   1.427   1_455  A
C431        C432   1.413       .  A
C431        C435   1.518       .  S
C432        H436   1.083       .  S
C433        F446   1.385       .  S
C433        F447   1.381       .  S
C433        F448   1.383       .  S
C435        F443   1.381       .  S
C435        F444   1.384       .  S
C435        F445   1.385       .  S
C449        C450   1.401   1_455  A
C449        C454   1.407       .  A
C449        H459   1.083       .  S
C450        C455   1.480   1_656  S
C450        C451   1.413       .  A
C451        C452   1.405       .  A
C451        C456   1.521   1_556  S
C452        C453   1.407       .  A
C452        H457   1.082       .  S
C453        C454   1.421   1_655  A
C454        C458   1.520       .  S
C455        C460   1.415       .  A
C455        C464   1.401   1_455  A
C456        F472   1.382       .  S
C456        F473   1.382       .  S
C456        F474   1.384   1_554  S
C458        F469   1.384       .  S
C458        F470   1.383       .  S
C458        F471   1.384       .  S
C460        C461   1.405       .  A
C460        C465   1.519       .  S
C461        C462   1.403       .  A
C461        H466   1.083       .  S
C462        C463   1.417       .  A
C463        C464   1.405   1_455  A
C463        C467   1.519   1_455  S
C464        H468   1.083       .  S
C465        F478   1.385       .  S
C465        F479   1.382       .  S
C465        F480   1.382   1_455  S
C467        F475   1.381   1_655  S
C467        F476   1.384       .  S
C467        F477   1.385       .  S
C481        C482   1.402       .  A
C481        C486   1.409       .  A
C481        H491   1.083       .  S
C482        C487   1.484       .  S
C482        C483   1.415       .  A
C483        C484   1.404       .  A
C483        C488   1.520       .  S
C484        C485   1.404       .  A
C484        H489   1.083       .  S
C485        C486   1.420       .  A
C486        C490   1.518       .  S
C487        C492   1.413       .  A
C487        C496   1.400       .  A
C488        F504   1.382       .  S
C488        F505   1.382       .  S
C488        F506   1.385       .  S
C490        F501   1.383       .  S
C490        F502   1.384       .  S
C490        F503   1.383       .  S
C492        C493   1.407       .  A
C492        C497   1.517       .  S
C493        C494   1.406       .  A
C493        H498   1.083       .  S
C494        C495   1.425       .  A
C495        C496   1.406       .  A
C495        C499   1.522       .  S
C496        H500   1.083       .  S
C497        F510   1.385       .  S
C497        F511   1.383       .  S
C497        F512   1.382       .  S
C499        F507   1.382       .  S
C499        F508   1.381       .  S
C499        F509   1.385       .  S
C513        C514   1.402       .  A
C513        C518   1.408       .  A
C513        H523   1.083       .  S
C514        C519   1.486       .  S
C514        C515   1.416       .  A
C515        C516   1.407       .  A
C515        C520   1.520       .  S
C516        C517   1.404       .  A
C516        H521   1.083       .  S
C517        C518   1.418       .  A
C518        C522   1.518       .  S
C519        C524   1.414       .  A
C519        C528   1.401       .  A
C520        F536   1.382       .  S
C520        F537   1.383       .  S
C520        F538   1.384       .  S
C522        F533   1.383       .  S
C522        F534   1.384       .  S
C522        F535   1.381       .  S
C524        C525   1.404       .  A
C524        C529   1.521       .  S
C525        C526   1.407       .  A
C525        H530   1.083       .  S
C526        C527   1.425       .  A
C527        C528   1.410       .  A
C527        C531   1.521       .  S
C528        H532   1.083       .  S
C529        F542   1.385       .  S
C529        F543   1.382       .  S
C529        F544   1.383       .  S
C531        F539   1.383       .  S
C531        F540   1.383       .  S
C531        F541   1.385       .  S
C545        C546   1.400       .  A
C545        C550   1.405       .  A
C545        H555   1.083       .  S
C546        C551   1.482       .  S
C546        C547   1.418       .  A
C547        C548   1.407       .  A
C547        C552   1.520       .  S
C548        C549   1.401       .  A
C548        H553   1.079       .  S
C549        C550   1.416       .  A
C550        C554   1.517       .  S
C551        C556   1.416       .  A
C551        C560   1.400       .  A
C552        F568   1.382       .  S
C552        F569   1.383       .  S
C552        F570   1.385       .  S
C554        F565   1.385       .  S
C554        F566   1.382       .  S
C554        F567   1.384       .  S
C556        C557   1.407       .  A
C556        C561   1.518       .  S
C557        C558   1.403       .  A
C557        H562   1.083       .  S
C558        C559   1.419       .  A
C559        C560   1.403       .  A
C559        C563   1.521       .  S
C560        H564   1.083       .  S
C561        F574   1.385       .  S
C561        F575   1.382       .  S
C561        F576   1.382       .  S
C563        F571   1.385       .  S
C563        F572   1.383       .  S
C563        F573   1.382       .  S
C577        C578   1.402       .  A
C577        C582   1.411       .  A
C577        H587   1.083       .  S
C578        C583   1.489       .  S
C578        C579   1.415       .  A
C579        C580   1.408       .  A
C579        C584   1.520       .  S
C580        C581   1.407       .  A
C580        H585   1.083       .  S
C581        C582   1.422       .  A
C582        C586   1.519       .  S
C583        C588   1.418       .  A
C583        C592   1.403       .  A
C584        F600   1.382       .  S
C584        F601   1.382       .  S
C584        F602   1.384       .  S
C586        F597   1.380       .  S
C586        F598   1.385       .  S
C586        F599   1.377       .  S
C588        C589   1.410       .  A
C588        C593   1.521       .  S
C589        C590   1.404       .  A
C589        H594   1.083       .  S
C590        C591   1.415       .  A
C591        C592   1.408       .  A
C591        C595   1.518       .  S
C592        H596   1.083       .  S
C593        F606   1.385       .  S
C593        F607   1.382       .  S
C593        F608   1.382       .  S
C595        F603   1.384       .  S
C595        F604   1.382       .  S
C595        F605   1.383       .  S
C609        C610   1.403       .  A
C609        C614   1.409       .  A
C609        H619   1.083       .  S
C610        C615   1.488       .  S
C610        C611   1.417       .  A
C611        C612   1.407       .  A
C611        C616   1.519       .  S
C612        C613   1.401       .  A
C612        H617   1.083       .  S
C613        C614   1.418       .  A
C614        C618   1.519       .  S
C615        C620   1.413       .  A
C615        C624   1.400       .  A
C616        F632   1.382       .  S
C616        F633   1.382       .  S
C616        F634   1.385       .  S
C618        F629   1.385       .  S
C618        F630   1.382       .  S
C618        F631   1.383       .  S
C620        C621   1.407       .  A
C620        C625   1.520       .  S
C621        C622   1.410       .  A
C621        H626   1.082       .  S
C622        C623   1.429       .  A
C623        C624   1.411       .  A
C623        C627   1.522       .  S
C624        H628   1.083       .  S
C625        F638   1.385       .  S
C625        F639   1.382       .  S
C625        F640   1.382       .  S
C627        F635   1.383       .  S
C627        F636   1.384       .  S
C627        F637   1.385       .  S
C641        C642   1.399       .  A
C641        C646   1.403       .  A
C641        H651   1.083       .  S
C642        C647   1.483       .  S
C642        C643   1.417       .  A
C643        C644   1.408       .  A
C643        C648   1.518       .  S
C644        C645   1.403       .  A
C644        H649   1.083       .  S
C645        C646   1.419       .  A
C646        C650   1.520       .  S
C647        C652   1.413       .  A
C647        C656   1.403       .  A
C648        F664   1.382       .  S
C648        F665   1.382       .  S
C648        F666   1.385       .  S
C650        F661   1.385       .  S
C650        F662   1.382       .  S
C650        F663   1.384       .  S
C652        C653   1.405       .  A
C652        C657   1.522       .  S
C653        C654   1.409       .  A
C653        H658   1.083       .  S
C654        C655   1.421       .  A
C655        C656   1.411       .  A
C655        C659   1.518       .  S
C656        H660   1.083       .  S
C657        F670   1.384       .  S
C657        F671   1.382       .  S
C657        F672   1.382       .  S
C659        F667   1.383       .  S
C659        F668   1.383       .  S
C659        F669   1.384       .  S
C673        C674   1.401       .  A
C673        C678   1.412       .  A
C673        H683   1.083       .  S
C674        C679   1.484       .  S
C674        C675   1.411       .  A
C675        C676   1.402       .  A
C675        C680   1.520       .  S
C676        C677   1.411       .  A
C676        H681   1.081       .  S
C677        C678   1.429       .  A
C678        C682   1.522       .  S
C679        C684   1.411       .  A
C679        C688   1.400       .  A
C680        F696   1.382       .  S
C680        F697   1.382       .  S
C680        F698   1.385       .  S
C682        F693   1.383       .  S
C682        F694   1.385       .  S
C682        F695   1.384   1_655  S
C684        C685   1.403       .  A
C684        C689   1.521       .  S
C685        C686   1.412       .  A
C685        H690   1.082       .  S
C686        C687   1.430       .  A
C687        C688   1.411       .  A
C687        C691   1.521       .  S
C688        H692   1.083       .  S
C689        F702   1.385       .  S
C689        F703   1.382       .  S
C689        F704   1.382       .  S
C691        F699   1.384       .  S
C691        F700   1.382       .  S
C691        F701   1.385       .  S
C705        C706   1.399       .  A
C705        C710   1.404       .  A
C705        H715   1.084       .  S
C706        C711   1.487       .  S
C706        C707   1.416       .  A
C707        C708   1.412       .  A
C707        C712   1.518       .  S
C708        C709   1.407       .  A
C708        H713   1.080       .  S
C709        C710   1.424       .  A
C710        C714   1.521   1_554  S
C711        C716   1.415       .  A
C711        C720   1.400       .  A
C712        F728   1.382       .  S
C712        F729   1.382       .  S
C712        F730   1.384       .  S
C714        F725   1.385       .  S
C714        F726   1.383       .  S
C714        F727   1.384       .  S
C716        C717   1.407       .  A
C716        C721   1.519       .  S
C717        C718   1.409       .  A
C717        H722   1.082       .  S
C718        C719   1.426       .  A
C719        C720   1.408       .  A
C719        C723   1.521       .  S
C720        H724   1.083       .  S
C721        F734   1.385       .  S
C721        F735   1.382       .  S
C721        F736   1.382       .  S
C723        F731   1.383       .  S
C723        F732   1.384       .  S
C723        F733   1.385       .  S
C737        C738   1.402       .  A
C737        C742   1.414       .  A
C737        H747   1.083       .  S
C738        C743   1.495       .  S
C738        C739   1.415       .  A
C739        C740   1.409       .  A
C739        C744   1.520       .  S
C740        C741   1.410       .  A
C740        H745   1.082       .  S
C741        C742   1.428       .  A
C742        C746   1.520       .  S
C743        C748   1.419       .  A
C743        C752   1.402       .  A
C744        F760   1.382       .  S
C744        F761   1.382       .  S
C744        F762   1.385       .  S
C746        F757   1.383       .  S
C746        F758   1.385       .  S
C746        F759   1.383       .  S
C748        C749   1.413       .  A
C748        C753   1.519       .  S
C749        C750   1.403       .  A
C749        H754   1.083       .  S
C750        C751   1.418       .  A
C751        C752   1.410       .  A
C751        C755   1.515       .  S
C752        H756   1.083       .  S
C753        F766   1.384       .  S
C753        F767   1.382       .  S
C753        F768   1.382       .  S
C755        F763   1.385       .  S
C755        F764   1.379       .  S
C755        F765   1.381       .  S
C769        C770   1.404       .  A
C769        C774   1.415       .  A
C769        H779   1.083       .  S
C770        C775   1.499       .  S
C770        C771   1.418       .  A
C771        C772   1.411       .  A
C771        C776   1.520       .  S
C772        C773   1.406       .  A
C772        H777   1.083       .  S
C773        C774   1.424       .  A
C774        C778   1.518       .  S
C775        C780   1.413       .  A
C775        C784   1.404       .  A
C776        F792   1.382       .  S
C776        F793   1.383       .  S
C776        F794   1.384       .  S
C778        F789   1.385   1_556  S
C778        F790   1.382       .  S
C778        F791   1.383       .  S
C780        C781   1.407       .  A
C780        C785   1.520       .  S
C781        C782   1.412       .  A
C781        H786   1.082       .  S
C782        C783   1.431       .  A
C783        C784   1.417       .  A
C783        C787   1.521       .  S
C784        H788   1.083       .  S
C785        F798   1.385       .  S
C785        F799   1.382       .  S
C785        F800   1.382       .  S
C787        F795   1.383   1_556  S
C787        F796   1.381       .  S
C787        F797   1.385       .  S
C801        C802   1.401       .  A
C801        C806   1.408       .  A
C801        H811   1.083       .  S
C802        C807   1.485       .  S
C802        C803   1.415       .  A
C803        C804   1.407       .  A
C803        C808   1.519       .  S
C804        C805   1.405       .  A
C804        H809   1.083       .  S
C805        C806   1.421       .  A
C806        C810   1.519       .  S
C807        C812   1.416       .  A
C807        C816   1.400       .  A
C808        F824   1.382       .  S
C808        F825   1.382       .  S
C808        F826   1.385       .  S
C810        F821   1.385       .  S
C810        F822   1.382       .  S
C810        F823   1.383       .  S
C812        C813   1.408       .  A
C812        C817   1.519       .  S
C813        C814   1.405       .  A
C813        H818   1.083       .  S
C814        C815   1.421       .  A
C815        C816   1.407       .  A
C815        C819   1.519       .  S
C816        H820   1.083       .  S
C817        F830   1.385       .  S
C817        F831   1.382       .  S
C817        F832   1.382       .  S
C819        F827   1.382       .  S
C819        F828   1.383       .  S
C819        F829   1.385       .  S
C833        C834   1.400       .  A
C833        C838   1.412       .  A
C833        H843   1.083       .  S
C834        C839   1.489       .  S
C834        C835   1.411       .  A
C835        C836   1.407       .  A
C835        C840   1.521       .  S
C836        C837   1.415       .  A
C836        H841   1.081       .  S
C837        C838   1.431       .  A
C838        C842   1.522       .  S
C839        C844   1.417       .  A
C839        C848   1.404       .  A
C840        F856   1.382       .  S
C840        F857   1.382       .  S
C840        F858   1.385       .  S
C842        F853   1.385       .  S
C842        F854   1.383       .  S
C842        F855   1.383       .  S
C844        C845   1.407       .  A
C844        C849   1.518       .  S
C845        C846   1.401       .  A
C845        H850   1.083       .  S
C846        C847   1.415       .  A
C847        C848   1.409       .  A
C847        C851   1.517       .  S
C848        H852   1.083       .  S
C849        F862   1.385       .  S
C849        F863   1.382       .  S
C849        F864   1.382       .  S
C851        F859   1.383   1_554  S
C851        F860   1.382   1_554  S
C851        F861   1.385       .  S
C865        C866   1.400       .  A
C865        C870   1.406       .  A
C865        H875   1.083       .  S
C866        C871   1.489       .  S
C866        C867   1.418       .  A
C867        C868   1.412       .  A
C867        C872   1.519       .  S
C868        C869   1.403       .  A
C868        H873   1.083       .  S
C869        C870   1.417       .  A
C870        C874   1.518       .  S
C871        C876   1.412       .  A
C871        C880   1.399       .  A
C872        F888   1.383       .  S
C872        F889   1.383       .  S
C872        F890   1.384       .  S
C874        F885   1.382       .  S
C874        F886   1.384       .  S
C874        F887   1.383       .  S
C876        C877   1.405       .  A
C876        C881   1.521       .  S
C877        C878   1.413       .  A
C877        H882   1.081       .  S
C878        C879   1.432       .  A
C879        C880   1.413       .  A
C879        C883   1.521       .  S
C880        H884   1.083       .  S
C881        F894   1.384       .  S
C881        F895   1.382       .  S
C881        F896   1.382       .  S
C883        F891   1.383       .  S
C883        F892   1.381   1_655  S
C883        F893   1.385       .  S
C897        C898   1.399       .  A
C897        C902   1.404       .  A
C897        H907   1.083       .  S
C898        C903   1.482       .  S
C898        C899   1.415       .  A
C899        C900   1.407       .  A
C899        C904   1.519       .  S
C900        C901   1.406       .  A
C900        H905   1.083       .  S
C901        C902   1.422       .  A
C902        C906   1.521       .  S
C903        C908   1.417       .  A
C903        C912   1.399       .  A
C904        F920   1.382       .  S
C904        F921   1.382       .  S
C904        F922   1.385       .  S
C906        F917   1.382       .  S
C906        F918   1.385       .  S
C906        F919   1.384       .  S
C908        C909   1.408       .  A
C908        C913   1.520       .  S
C909        C910   1.405       .  A
C909        H914   1.083       .  S
C910        C911   1.421       .  A
C911        C912   1.405       .  A
C911        C915   1.520       .  S
C912        H916   1.083       .  S
C913        F926   1.384       .  S
C913        F927   1.383       .  S
C913        F928   1.382       .  S
C915        F923   1.382       .  S
C915        F924   1.384       .  S
C915        F925   1.384       .  S
C929        C930   1.403       .  A
C929        C934   1.407       .  A
C929        H939   1.083       .  S
C930        C935   1.486       .  S
C930        C931   1.417       .  A
C931        C932   1.408       .  A
C931        C936   1.518       .  S
C932        C933   1.405       .  A
C932        H937   1.085       .  S
C933        C934   1.418       .  A
C934        C938   1.519       .  S
C935        C940   1.413       .  A
C935        C944   1.401       .  A
C936        F952   1.383       .  S
C936        F953   1.383       .  S
C936        F954   1.384       .  S
C938        F949   1.385       .  S
C938        F950   1.383       .  S
C938        F951   1.382       .  S
C940        C941   1.408       .  A
C940        C945   1.517       .  S
C941        C942   1.409       .  A
C941        H946   1.083       .  S
C942        C943   1.422       .  A
C943        C944   1.406       .  A
C943        C947   1.519       .  S
C944        H948   1.083       .  S
C945        F958   1.385       .  S
C945        F959   1.382       .  S
C945        F960   1.384       .  S
C947        F955   1.385       .  S
C947        F956   1.382       .  S
C947        F957   1.384       .  S
C961        C962   1.404       .  A
C961        C966   1.415       .  A
C961        H971   1.083       .  S
C962        C967   1.498       .  S
C962        C963   1.418       .  A
C963        C964   1.411       .  A
C963        C968   1.520       .  S
C964        C965   1.406       .  A
C964        H969   1.083       .  S
C965        C966   1.421       .  A
C966        C970   1.517       .  S
C967        C972   1.418       .  A
C967        C976   1.407       .  A
C968        F984   1.382       .  S
C968        F985   1.381       .  S
C968        F986   1.385       .  S
C970        F981   1.385       .  S
C970        F982   1.382       .  S
C970        F983   1.383       .  S
C972        C973   1.411       .  A
C972        C977   1.519       .  S
C973        C974   1.403       .  A
C973        H978   1.083       .  S
C974        C975   1.416       .  A
C975        C976   1.415       .  A
C975        C979   1.518       .  S
C976        H980   1.083       .  S
C977        F990   1.384       .  S
C977        F991   1.382       .  S
C977        F992   1.381       .  S
C979        F987   1.384       .  S
C979        F988   1.383       .  S
C979        F989   1.383       .  S
C993        C994   1.399       .  A
C993        C998   1.406       .  A
C993       H1003   1.083       .  S
C994        C999   1.489       .  S
C994        C995   1.415       .  A
C995        C996   1.411       .  A
C995       C1000   1.518       .  S
C996        C997   1.408       .  A
C996       H1001   1.082       .  S
C997        C998   1.427       .  A
C998       C1002   1.523       .  S
C999       C1004   1.419   1_565  A
C999       C1008   1.403       .  A
C1000      F1016   1.382       .  S
C1000      F1017   1.382   1_565  S
C1000      F1018   1.385       .  S
C1002      F1013   1.383   1_565  S
C1002      F1014   1.385       .  S
C1002      F1015   1.383       .  S
C1004      C1005   1.408       .  A
C1004      C1009   1.519       .  S
C1005      C1006   1.402   1_545  A
C1005      H1010   1.084       .  S
C1006      C1007   1.417       .  A
C1007      C1008   1.409       .  A
C1007      C1011   1.518       .  S
C1008      H1012   1.083       .  S
C1009      F1022   1.385       .  S
C1009      F1023   1.382       .  S
C1009      F1024   1.382       .  S
C1011      F1019   1.382       .  S
C1011      F1020   1.384       .  S
C1011      F1021   1.385       .  S
C1025      C1026   1.403       .  A
C1025      C1030   1.406       .  A
C1025      H1035   1.083       .  S
C1026      C1031   1.487       .  S
C1026      C1027   1.418   1_565  A
C1027      C1028   1.409       .  A
C1027      C1032   1.519       .  S
C1028      C1029   1.402   1_545  A
C1028      H1033   1.083       .  S
C1029      C1030   1.413       .  A
C1030      C1034   1.517       .  S
C1031      C1036   1.416       .  A
C1031      C1040   1.402   1_565  A
C1032      F1048   1.382       .  S
C1032      F1049   1.382       .  S
C1032      F1050   1.385       .  S
C1034      F1045   1.383       .  S
C1034      F1046   1.384       .  S
C1034      F1047   1.383       .  S
C1036      C1037   1.410       .  A
C1036      C1041   1.519       .  S
C1037      C1038   1.404       .  A
C1037      H1042   1.083       .  S
C1038      C1039   1.418   1_565  A
C1039      C1040   1.407       .  A
C1039      C1043   1.520       .  S
C1040      H1044   1.083       .  S
C1041      F1054   1.384       .  S
C1041      F1055   1.382       .  S
C1041      F1056   1.381       .  S
C1043      F1051   1.382       .  S
C1043      F1052   1.382       .  S
C1043      F1053   1.385       .  S
C1057      C1058   1.404       .  A
C1057      C1062   1.414       .  A
C1057      H1067   1.083       .  S
C1058      C1063   1.494       .  S
C1058      C1059   1.417       .  A
C1059      C1060   1.409       .  A
C1059      C1064   1.521       .  S
C1060      C1061   1.407       .  A
C1060      H1065   1.083       .  S
C1061      C1062   1.422       .  A
C1062      C1066   1.517       .  S
C1063      C1068   1.417       .  A
C1063      C1072   1.402       .  A
C1064      F1080   1.382       .  S
C1064      F1081   1.382       .  S
C1064      F1082   1.384       .  S
C1066      F1077   1.382       .  S
C1066      F1078   1.385       .  S
C1066      F1079   1.383       .  S
C1068      C1069   1.412       .  A
C1068      C1073   1.517       .  S
C1069      C1070   1.404       .  A
C1069      H1074   1.083       .  S
C1070      C1071   1.422       .  A
C1071      C1072   1.410       .  A
C1071      C1075   1.520       .  S
C1072      H1076   1.083       .  S
C1073      F1086   1.385       .  S
C1073      F1087   1.382       .  S
C1073      F1088   1.382       .  S
C1075      F1083   1.385       .  S
C1075      F1084   1.384       .  S
C1075      F1085   1.381       .  S
C1089      C1090   1.404       .  A
C1089      C1094   1.411       .  A
C1089      H1099   1.083   1_554  S
C1090      C1095   1.483       .  S
C1090      C1091   1.413       .  A
C1091      C1092   1.404       .  A
C1091      C1096   1.522       .  S
C1092      C1093   1.408       .  A
C1092      H1097   1.083       .  S
C1093      C1094   1.419       .  A
C1094      C1098   1.519       .  S
C1095      C1100   1.413       .  A
C1095      C1104   1.399       .  A
C1096      F1112   1.382       .  S
C1096      F1113   1.382       .  S
C1096      F1114   1.384       .  S
C1098      F1109   1.382       .  S
C1098      F1110   1.384   1_554  S
C1098      F1111   1.384       .  S
C1100      C1101   1.407       .  A
C1100      C1105   1.519       .  S
C1101      C1102   1.407       .  A
C1101      H1106   1.083       .  S
C1102      C1103   1.426       .  A
C1103      C1104   1.407       .  A
C1103      C1107   1.523       .  S
C1104      H1108   1.083       .  S
C1105      F1118   1.385       .  S
C1105      F1119   1.382       .  S
C1105      F1120   1.382       .  S
C1107      F1115   1.383   1_554  S
C1107      F1116   1.384       .  S
C1107      F1117   1.385       .  S
C1121      C1122   1.401       .  A
C1121      C1126   1.412       .  A
C1121      H1131   1.083       .  S
C1122      C1127   1.486       .  S
C1122      C1123   1.413       .  A
C1123      C1124   1.405       .  A
C1123      C1128   1.522       .  S
C1124      C1125   1.411       .  A
C1124      H1129   1.082       .  S
C1125      C1126   1.425       .  A
C1126      C1130   1.516       .  S
C1127      C1132   1.416       .  A
C1127      C1136   1.405       .  A
C1128      F1144   1.382       .  S
C1128      F1145   1.383       .  S
C1128      F1146   1.384       .  S
C1130      F1141   1.384       .  S
C1130      F1142   1.385       .  S
C1130      F1143   1.380       .  S
C1132      C1133   1.404       .  A
C1132      C1137   1.520       .  S
C1133      C1134   1.400       .  A
C1133      H1138   1.078       .  S
C1134      C1135   1.416       .  A
C1135      C1136   1.410       .  A
C1135      C1139   1.519       .  S
C1136      H1140   1.083       .  S
C1137      F1150   1.384       .  S
C1137      F1151   1.382       .  S
C1137      F1152   1.383       .  S
C1139      F1147   1.384       .  S
C1139      F1148   1.382       .  S
C1139      F1149   1.384       .  S
C1153      C1154   1.401       .  A
C1153      C1158   1.409       .  A
C1153      H1163   1.083       .  S
C1154      C1159   1.486       .  S
C1154      C1155   1.415       .  A
C1155      C1156   1.408       .  A
C1155      C1160   1.521       .  S
C1156      C1157   1.407       .  A
C1156      H1161   1.083       .  S
C1157      C1158   1.420       .  A
C1158      C1162   1.513       .  S
C1159      C1164   1.416       .  A
C1159      C1168   1.402       .  A
C1160      F1176   1.382       .  S
C1160      F1177   1.382       .  S
C1160      F1178   1.384       .  S
C1162      F1173   1.377       .  S
C1162      F1174   1.385   1_556  S
C1162      F1175   1.384       .  S
C1164      C1165   1.408       .  A
C1164      C1169   1.519       .  S
C1165      C1166   1.404       .  A
C1165      H1170   1.083   1_556  S
C1166      C1167   1.417       .  A
C1167      C1168   1.407       .  A
C1167      C1171   1.518       .  S
C1168      H1172   1.083       .  S
C1169      F1182   1.385       .  S
C1169      F1183   1.382   1_556  S
C1169      F1184   1.382       .  S
C1171      F1179   1.381   1_556  S
C1171      F1180   1.384       .  S
C1171      F1181   1.385       .  S
C1185      C1186   1.404       .  A
C1185      C1190   1.411       .  A
C1185      H1195   1.083       .  S
C1186      C1191   1.485       .  S
C1186      C1187   1.414       .  A
C1187      C1188   1.403       .  A
C1187      C1192   1.521       .  S
C1188      C1189   1.406       .  A
C1188      H1193   1.083       .  S
C1189      C1190   1.420       .  A
C1190      C1194   1.517       .  S
C1191      C1196   1.413       .  A
C1191      C1200   1.399       .  A
C1192      F1208   1.382   1_556  S
C1192      F1209   1.382       .  S
C1192      F1210   1.385   1_556  S
C1194      F1205   1.385       .  S
C1194      F1206   1.381       .  S
C1194      F1207   1.383       .  S
C1196      C1197   1.407       .  A
C1196      C1201   1.520       .  S
C1197      C1198   1.411       .  A
C1197      H1202   1.083       .  S
C1198      C1199   1.427       .  A
C1199      C1200   1.408       .  A
C1199      C1203   1.520       .  S
C1200      H1204   1.083       .  S
C1201      F1214   1.385       .  S
C1201      F1215   1.382       .  S
C1201      F1216   1.382       .  S
C1203      F1211   1.385       .  S
C1203      F1212   1.383       .  S
C1203      F1213   1.382       .  S
C1217      C1218   1.398       .  A
C1217      C1222   1.407       .  A
C1217      H1227   1.083       .  S
C1218      C1223   1.486       .  S
C1218      C1219   1.414       .  A
C1219      C1220   1.409       .  A
C1219      C1224   1.519       .  S
C1220      C1221   1.407       .  A
C1220      H1225   1.083       .  S
C1221      C1222   1.427       .  A
C1222      C1226   1.520       .  S
C1223      C1228   1.415       .  A
C1223      C1232   1.402       .  A
C1224      F1240   1.383       .  S
C1224      F1241   1.382       .  S
C1224      F1242   1.385       .  S
C1226      F1237   1.381       .  S
C1226      F1238   1.385       .  S
C1226      F1239   1.382       .  S
C1228      C1229   1.407       .  A
C1228      C1233   1.520       .  S
C1229      C1230   1.405       .  A
C1229      H1234   1.083       .  S
C1230      C1231   1.420       .  A
C1231      C1232   1.409       .  A
C1231      C1235   1.517       .  S
C1232      H1236   1.083       .  S
C1233      F1246   1.384       .  S
C1233      F1247   1.382       .  S
C1233      F1248   1.382       .  S
C1235      F1243   1.382       .  S
C1235      F1244   1.380       .  S
C1235      F1245   1.385       .  S
C1249      C1250   1.405       .  A
C1249      C1254   1.413       .  A
C1249      H1259   1.083       .  S
C1250      C1255   1.492       .  S
C1250      C1251   1.415       .  A
C1251      C1252   1.407       .  A
C1251      C1256   1.519       .  S
C1252      C1253   1.403       .  A
C1252      H1257   1.078       .  S
C1253      C1254   1.420       .  A
C1254      C1258   1.518       .  S
C1255      C1260   1.414       .  A
C1255      C1264   1.398       .  A
C1256      F1272   1.383       .  S
C1256      F1273   1.381       .  S
C1256      F1274   1.385       .  S
C1258      F1269   1.382       .  S
C1258      F1270   1.385       .  S
C1258      F1271   1.384   1_554  S
C1260      C1261   1.412       .  A
C1260      C1265   1.520       .  S
C1261      C1262   1.411       .  A
C1261      H1266   1.081       .  S
C1262      C1263   1.432       .  A
C1263      C1264   1.411       .  A
C1263      C1267   1.522       .  S
C1264      H1268   1.083       .  S
C1265      F1278   1.384       .  S
C1265      F1279   1.383       .  S
C1265      F1280   1.382       .  S
C1267      F1275   1.385       .  S
C1267      F1276   1.383       .  S
C1267      F1277   1.383       .  S
C1281      C1282   1.403       .  A
C1281      C1286   1.413       .  A
C1281      H1291   1.083       .  S
C1282      C1287   1.487       .  S
C1282      C1283   1.415       .  A
C1283      C1284   1.401       .  A
C1283      C1288   1.522       .  S
C1284      C1285   1.406       .  A
C1284      H1289   1.082       .  S
C1285      C1286   1.425       .  A
C1286      C1290   1.519       .  S
C1287      C1292   1.416       .  A
C1287      C1296   1.399       .  A
C1288      F1304   1.381       .  S
C1288      F1305   1.382       .  S
C1288      F1306   1.385       .  S
C1290      F1301   1.381       .  S
C1290      F1302   1.385       .  S
C1290      F1303   1.382       .  S
C1292      C1293   1.410       .  A
C1292      C1297   1.517       .  S
C1293      C1294   1.404       .  A
C1293      H1298   1.083       .  S
C1294      C1295   1.422       .  A
C1295      C1296   1.405       .  A
C1295      C1299   1.521       .  S
C1296      H1300   1.083       .  S
C1297      F1310   1.385       .  S
C1297      F1311   1.382       .  S
C1297      F1312   1.383       .  S
C1299      F1307   1.385       .  S
C1299      F1308   1.383       .  S
C1299      F1309   1.382       .  S
C1313      C1314   1.406       .  A
C1313      C1318   1.422       .  A
C1313      H1323   1.083       .  S
C1314      C1319   1.502       .  S
C1314      C1315   1.414       .  A
C1315      C1316   1.408       .  A
C1315      C1320   1.523       .  S
C1316      C1317   1.417       .  A
C1316      H1321   1.081       .  S
C1317      C1318   1.429       .  A
C1318      C1322   1.518       .  S
C1319      C1324   1.417       .  A
C1319      C1328   1.404       .  A
C1320      F1336   1.382       .  S
C1320      F1337   1.381       .  S
C1320      F1338   1.385       .  S
C1322      F1333   1.385       .  S
C1322      F1334   1.383       .  S
C1322      F1335   1.383       .  S
C1324      C1325   1.414       .  A
C1324      C1329   1.518       .  S
C1325      C1326   1.409       .  A
C1325      H1330   1.083       .  S
C1326      C1327   1.425       .  A
C1327      C1328   1.415       .  A
C1327      C1331   1.519       .  S
C1328      H1332   1.083       .  S
C1329      F1342   1.385       .  S
C1329      F1343   1.382       .  S
C1329      F1344   1.382       .  S
C1331      F1339   1.384       .  S
C1331      F1340   1.382       .  S
C1331      F1341   1.385       .  S
C1345      C1346   1.403       .  A
C1345      C1350   1.408       .  A
C1345      H1355   1.083       .  S
C1346      C1351   1.490       .  S
C1346      C1347   1.416       .  A
C1347      C1348   1.409       .  A
C1347      C1352   1.519       .  S
C1348      C1349   1.405       .  A
C1348      H1353   1.082       .  S
C1349      C1350   1.418       .  A
C1350      C1354   1.518       .  S
C1351      C1356   1.415       .  A
C1351      C1360   1.400       .  A
C1352      F1368   1.382       .  S
C1352      F1369   1.381       .  S
C1352      F1370   1.385       .  S
C1354      F1365   1.385       .  S
C1354      F1366   1.382       .  S
C1354      F1367   1.384       .  S
C1356      C1357   1.411       .  A
C1356      C1361   1.519       .  S
C1357      C1358   1.407       .  A
C1357      H1362   1.083       .  S
C1358      C1359   1.425       .  A
C1359      C1360   1.409       .  A
C1359      C1363   1.521       .  S
C1360      H1364   1.083       .  S
C1361      F1374   1.384       .  S
C1361      F1375   1.382       .  S
C1361      F1376   1.382       .  S
C1363      F1371   1.382       .  S
C1363      F1372   1.383       .  S
C1363      F1373   1.385       .  S
C1377      C1378   1.401       .  A
C1377      C1382   1.409       .  A
C1377      H1387   1.083       .  S
C1378      C1383   1.486       .  S
C1378      C1379   1.415       .  A
C1379      C1380   1.405       .  A
C1379      C1384   1.520       .  S
C1380      C1381   1.407       .  A
C1380      H1385   1.083       .  S
C1381      C1382   1.424       .  A
C1382      C1386   1.520       .  S
C1383      C1388   1.417       .  A
C1383      C1392   1.403       .  A
C1384      F1400   1.382       .  S
C1384      F1401   1.382       .  S
C1384      F1402   1.385       .  S
C1386      F1397   1.385       .  S
C1386      F1398   1.383       .  S
C1386      F1399   1.384       .  S
C1388      C1389   1.407       .  A
C1388      C1393   1.521       .  S
C1389      C1390   1.403       .  A
C1389      H1394   1.084       .  S
C1390      C1391   1.415       .  A
C1391      C1392   1.409       .  A
C1391      C1395   1.516       .  S
C1392      H1396   1.083       .  S
C1393      F1406   1.384       .  S
C1393      F1407   1.382       .  S
C1393      F1408   1.383       .  S
C1395      F1403   1.385       .  S
C1395      F1404   1.383       .  S
C1395      F1405   1.382       .  S
C1409      C1410   1.404       .  A
C1409      C1414   1.413       .  A
C1409      H1419   1.083       .  S
C1410      C1415   1.487       .  S
C1410      C1411   1.416       .  A
C1411      C1412   1.404       .  A
C1411      C1416   1.521       .  S
C1412      C1413   1.403       .  A
C1412      H1417   1.083       .  S
C1413      C1414   1.419       .  A
C1414      C1418   1.517       .  S
C1415      C1420   1.417       .  A
C1415      C1424   1.402       .  A
C1416      F1432   1.382       .  S
C1416      F1433   1.382       .  S
C1416      F1434   1.384       .  S
C1418      F1429   1.383       .  S
C1418      F1430   1.384       .  S
C1418      F1431   1.381       .  S
C1420      C1421   1.408       .  A
C1420      C1425   1.518       .  S
C1421      C1422   1.401       .  A
C1421      H1426   1.083       .  S
C1422      C1423   1.416       .  A
C1423      C1424   1.407       .  A
C1423      C1427   1.518       .  S
C1424      H1428   1.083       .  S
C1425      F1438   1.385       .  S
C1425      F1439   1.382       .  S
C1425      F1440   1.382       .  S
C1427      F1435   1.384       .  S
C1427      F1436   1.379       .  S
C1427      F1437   1.383       .  S
C1441      C1442   1.396       .  A
C1441      C1446   1.405       .  A
C1441      H1451   1.083       .  S
C1442      C1447   1.476       .  S
C1442      C1443   1.412       .  A
C1443      C1444   1.405       .  A
C1443      C1448   1.521       .  S
C1444      C1445   1.410       .  A
C1444      H1449   1.082       .  S
C1445      C1446   1.427       .  A
C1446      C1450   1.521       .  S
C1447      C1452   1.410       .  A
C1447      C1456   1.399       .  A
C1448      F1464   1.382       .  S
C1448      F1465   1.382       .  S
C1448      F1466   1.384       .  S
C1450      F1461   1.385       .  S
C1450      F1462   1.382       .  S
C1450      F1463   1.383       .  S
C1452      C1453   1.403       .  A
C1452      C1457   1.521       .  S
C1453      C1454   1.410       .  A
C1453      H1458   1.083       .  S
C1454      C1455   1.425       .  A
C1455      C1456   1.407       .  A
C1455      C1459   1.520       .  S
C1456      H1460   1.083       .  S
C1457      F1470   1.384       .  S
C1457      F1471   1.383       .  S
C1457      F1472   1.382       .  S
C1459      F1467   1.385       .  S
C1459      F1468   1.384       .  S
C1459      F1469   1.382       .  S
C1473      C1474   1.402       .  A
C1473      C1478   1.406       .  A
C1473      H1483   1.083       .  S
C1474      C1479   1.487       .  S
C1474      C1475   1.417       .  A
C1475      C1476   1.411       .  A
C1475      C1480   1.519       .  S
C1476      C1477   1.404       .  A
C1476      H1481   1.083       .  S
C1477      C1478   1.414       .  A
C1478      C1482   1.516       .  S
C1479      C1484   1.415       .  A
C1479      C1488   1.401       .  A
C1480      F1496   1.382       .  S
C1480      F1497   1.382       .  S
C1480      F1498   1.384       .  S
C1482      F1493   1.384       .  S
C1482      F1494   1.382       .  S
C1482      F1495   1.383       .  S
C1484      C1485   1.407       .  A
C1484      C1489   1.522       .  S
C1485      C1486   1.411       .  A
C1485      H1490   1.082       .  S
C1486      C1487   1.422       .  A
C1487      C1488   1.410       .  A
C1487      C1491   1.516       .  S
C1488      H1492   1.083       .  S
C1489      F1502   1.384       .  S
C1489      F1503   1.381       .  S
C1489      F1504   1.382       .  S
C1491      F1499   1.382       .  S
C1491      F1500   1.384       .  S
C1491      F1501   1.384       .  S
C1505      C1506   1.400       .  A
C1505      C1510   1.407       .  A
C1505      H1515   1.083       .  S
C1506      C1511   1.485       .  S
C1506      C1507   1.415       .  A
C1507      C1508   1.409       .  A
C1507      C1512   1.521       .  S
C1508      C1509   1.408       .  A
C1508      H1513   1.083       .  S
C1509      C1510   1.423       .  A
C1510      C1514   1.520       .  S
C1511      C1516   1.414       .  A
C1511      C1520   1.400       .  A
C1512      F1528   1.382       .  S
C1512      F1529   1.382       .  S
C1512      F1530   1.384       .  S
C1514      F1525   1.382       .  S
C1514      F1526   1.384       .  S
C1514      F1527   1.384       .  S
C1516      C1517   1.409       .  A
C1516      C1521   1.520       .  S
C1517      C1518   1.409       .  A
C1517      H1522   1.083       .  S
C1518      C1519   1.423       .  A
C1519      C1520   1.408       .  A
C1519      C1523   1.520       .  S
C1520      H1524   1.083       .  S
C1521      F1534   1.384       .  S
C1521      F1535   1.382       .  S
C1521      F1536   1.382       .  S
C1523      F1531   1.384       .  S
C1523      F1532   1.383       .  S
C1523      F1533   1.385       .  S
C1537      C1538   1.400       .  A
C1537      C1542   1.407       .  A
C1537      H1547   1.083       .  S
C1538      C1543   1.487       .  S
C1538      C1539   1.414       .  A
C1539      C1540   1.410       .  A
C1539      C1544   1.519       .  S
C1540      C1541   1.408       .  A
C1540      H1545   1.083       .  S
C1541      C1542   1.423       .  A
C1542      C1546   1.521       .  S
C1543      C1548   1.418       .  A
C1543      C1552   1.403       .  A
C1544      F1560   1.382       .  S
C1544      F1561   1.381       .  S
C1544      F1562   1.385       .  S
C1546      F1557   1.385       .  S
C1546      F1558   1.382       .  S
C1546      F1559   1.383       .  S
C1548      C1549   1.410       .  A
C1548      C1553   1.521       .  S
C1549      C1550   1.403       .  A
C1549      H1554   1.083       .  S
C1550      C1551   1.416       .  A
C1551      C1552   1.408       .  A
C1551      C1555   1.518       .  S
C1552      H1556   1.083       .  S
C1553      F1566   1.384       .  S
C1553      F1567   1.383       .  S
C1553      F1568   1.381       .  S
C1555      F1563   1.383       .  S
C1555      F1564   1.383       .  S
C1555      F1565   1.384       .  S
C1569      C1570   1.402       .  A
C1569      C1574   1.416       .  A
C1569      H1579   1.083       .  S
C1570      C1575   1.496       .  S
C1570      C1571   1.413       .  A
C1571      C1572   1.409       .  A
C1571      C1576   1.520       .  S
C1572      C1573   1.413       .  A
C1572      H1577   1.082       .  S
C1573      C1574   1.429       .  A
C1574      C1578   1.519       .  S
C1575      C1580   1.418       .  A
C1575      C1584   1.405       .  A
C1576      F1592   1.383       .  S
C1576      F1593   1.382       .  S
C1576      F1594   1.385       .  S
C1578      F1589   1.382       .  S
C1578      F1590   1.385       .  S
C1578      F1591   1.383       .  S
C1580      C1581   1.409       .  A
C1580      C1585   1.519       .  S
C1581      C1582   1.404       .  A
C1581      H1586   1.083       .  S
C1582      C1583   1.417       .  A
C1583      C1584   1.414       .  A
C1583      C1587   1.516       .  S
C1584      H1588   1.083       .  S
C1585      F1598   1.385   1_554  S
C1585      F1599   1.382   1_554  S
C1585      F1600   1.382       .  S
C1587      F1595   1.384       .  S
C1587      F1596   1.382       .  S
C1587      F1597   1.384       .  S
C1601      C1602   1.401       .  A
C1601      C1606   1.408       .  A
C1601      H1611   1.083       .  S
C1602      C1607   1.493       .  S
C1602      C1603   1.419       .  A
C1603      C1604   1.412       .  A
C1603      C1608   1.520       .  S
C1604      C1605   1.407       .  A
C1604      H1609   1.083       .  S
C1605      C1606   1.421       .  A
C1606      C1610   1.518   1_554  S
C1607      C1612   1.415       .  A
C1607      C1616   1.398       .  A
C1608      F1624   1.382       .  S
C1608      F1625   1.382       .  S
C1608      F1626   1.385       .  S
C1610      F1621   1.384       .  S
C1610      F1622   1.385       .  S
C1610      F1623   1.382       .  S
C1612      C1613   1.414       .  A
C1612      C1617   1.518   1_554  S
C1613      C1614   1.411       .  A
C1613      H1618   1.079       .  S
C1614      C1615   1.429       .  A
C1615      C1616   1.407       .  A
C1615      C1619   1.522       .  S
C1616      H1620   1.083       .  S
C1617      F1630   1.384       .  S
C1617      F1631   1.382       .  S
C1617      F1632   1.382       .  S
C1619      F1627   1.382       .  S
C1619      F1628   1.384       .  S
C1619      F1629   1.385       .  S
C1633      C1634   1.401       .  A
C1633      C1638   1.410       .  A
C1633      H1643   1.083       .  S
C1634      C1639   1.492       .  S
C1634      C1635   1.418       .  A
C1635      C1636   1.411       .  A
C1635      C1640   1.520       .  S
C1636      C1637   1.405       .  A
C1636      H1641   1.083       .  S
C1637      C1638   1.421       .  A
C1638      C1642   1.518       .  S
C1639      C1644   1.415       .  A
C1639      C1648   1.402       .  A
C1640      F1656   1.382       .  S
C1640      F1657   1.382       .  S
C1640      F1658   1.384       .  S
C1642      F1653   1.383       .  S
C1642      F1654   1.384       .  S
C1642      F1655   1.382       .  S
C1644      C1645   1.411       .  A
C1644      C1649   1.518       .  S
C1645      C1646   1.408       .  A
C1645      H1650   1.083       .  S
C1646      C1647   1.424       .  A
C1647      C1648   1.409       .  A
C1647      C1651   1.522       .  S
C1648      H1652   1.083       .  S
C1649      F1662   1.384       .  S
C1649      F1663   1.382       .  S
C1649      F1664   1.382       .  S
C1651      F1659   1.385       .  S
C1651      F1660   1.384       .  S
C1651      F1661   1.383       .  S
C1665      C1666   1.404       .  A
C1665      C1670   1.414       .  A
C1665      H1675   1.083       .  S
C1666      C1671   1.495       .  S
C1666      C1667   1.417       .  A
C1667      C1668   1.409       .  A
C1667      C1672   1.521       .  S
C1668      C1669   1.408       .  A
C1668      H1673   1.083       .  S
C1669      C1670   1.424       .  A
C1670      C1674   1.519       .  S
C1671      C1676   1.416       .  A
C1671      C1680   1.398       .  A
C1672      F1688   1.382       .  S
C1672      F1689   1.382       .  S
C1672      F1690   1.384       .  S
C1674      F1685   1.384       .  S
C1674      F1686   1.381       .  S
C1674      F1687   1.383       .  S
C1676      C1677   1.414       .  A
C1676      C1681   1.518       .  S
C1677      C1678   1.411       .  A
C1677      H1682   1.083       .  S
C1678      C1679   1.430       .  A
C1679      C1680   1.409       .  A
C1679      C1683   1.522       .  S
C1680      H1684   1.083       .  S
C1681      F1694   1.384       .  S
C1681      F1695   1.382       .  S
C1681      F1696   1.382       .  S
C1683      F1691   1.385       .  S
C1683      F1692   1.383       .  S
C1683      F1693   1.383       .  S
C1697      C1698   1.406       .  A
C1697      C1702   1.414       .  A
C1697      H1707   1.083       .  S
C1698      C1703   1.488       .  S
C1698      C1699   1.415       .  A
C1699      C1700   1.402       .  A
C1699      C1704   1.522       .  S
C1700      C1701   1.405       .  A
C1700      H1705   1.083       .  S
C1701      C1702   1.417       .  A
C1702      C1706   1.517       .  S
C1703      C1708   1.417       .  A
C1703      C1712   1.403       .  A
C1704      F1720   1.382       .  S
C1704      F1721   1.382       .  S
C1704      F1722   1.385       .  S
C1706      F1717   1.381       .  S
C1706      F1718   1.384       .  S
C1706      F1719   1.384       .  S
C1708      C1709   1.409       .  A
C1708      C1713   1.519       .  S
C1709      C1710   1.403       .  A
C1709      H1714   1.083       .  S
C1710      C1711   1.416       .  A
C1711      C1712   1.408       .  A
C1711      C1715   1.518       .  S
C1712      H1716   1.083       .  S
C1713      F1726   1.385       .  S
C1713      F1727   1.382       .  S
C1713      F1728   1.383       .  S
C1715      F1723   1.383       .  S
C1715      F1724   1.382       .  S
C1715      F1725   1.385       .  S
C1729      C1730   1.401       .  A
C1729      C1734   1.411       .  A
C1729      H1739   1.083       .  S
C1730      C1735   1.488       .  S
C1730      C1731   1.418       .  A
C1731      C1732   1.408       .  A
C1731      C1736   1.520       .  S
C1732      C1733   1.402       .  A
C1732      H1737   1.080       .  S
C1733      C1734   1.418       .  A
C1734      C1738   1.514       .  S
C1735      C1740   1.416       .  A
C1735      C1744   1.399       .  A
C1736      F1752   1.383       .  S
C1736      F1753   1.382       .  S
C1736      F1754   1.384       .  S
C1738      F1749   1.378       .  S
C1738      F1750   1.385       .  S
C1738      F1751   1.384       .  S
C1740      C1741   1.411       .  A
C1740      C1745   1.517       .  S
C1741      C1742   1.406       .  A
C1741      H1746   1.083       .  S
C1742      C1743   1.421       .  A
C1743      C1744   1.406       .  A
C1743      C1747   1.520       .  S
C1744      H1748   1.083       .  S
C1745      F1758   1.385       .  S
C1745      F1759   1.383       .  S
C1745      F1760   1.382       .  S
C1747      F1755   1.385       .  S
C1747      F1756   1.383       .  S
C1747      F1757   1.381       .  S
C1761      C1762   1.402   1_565  A
C1761      C1766   1.406   1_655  A
C1761      H1771   1.083   1_655  S
C1762      C1767   1.481       .  S
C1762      C1763   1.415       .  A
C1763      C1764   1.404       .  A
C1763      C1768   1.520       .  S
C1764      C1765   1.403   1_655  A
C1764      H1769   1.083       .  S
C1765      C1766   1.418   1_545  A
C1766      C1770   1.519       .  S
C1767      C1772   1.411   1_545  A
C1767      C1776   1.397   1_655  A
C1768      F1784   1.382   1_655  S
C1768      F1785   1.382       .  S
C1768      F1786   1.385       .  S
C1770      F1781   1.385       .  S
C1770      F1782   1.384       .  S
C1770      F1783   1.380   1_455  S
C1772      C1773   1.406       .  A
C1772      C1777   1.521       .  S
C1773      C1774   1.413   1_565  A
C1773      H1778   1.082       .  S
C1774      C1775   1.430   1_655  A
C1775      C1776   1.406       .  A
C1775      C1779   1.522       .  S
C1776      H1780   1.083       .  S
C1777      F1790   1.384       .  S
C1777      F1791   1.382       .  S
C1777      F1792   1.382   1_565  S
C1779      F1787   1.383   1_545  S
C1779      F1788   1.383       .  S
C1779      F1789   1.385       .  S
C1793      C1794   1.401   1_665  A
C1793      C1798   1.408       .  A
C1793      H1803   1.083       .  S
C1794      C1799   1.478       .  S
C1794      C1795   1.411       .  A
C1795      C1796   1.402       .  A
C1795      C1800   1.520       .  S
C1796      C1797   1.407       .  A
C1796      H1801   1.083       .  S
C1797      C1798   1.423   1_445  A
C1798      C1802   1.519       .  S
C1799      C1804   1.411   1_455  A
C1799      C1808   1.402   1_545  A
C1800      F1816   1.382       .  S
C1800      F1817   1.381   1_455  S
C1800      F1818   1.384       .  S
C1802      F1813   1.382       .  S
C1802      F1814   1.386       .  S
C1802      F1815   1.383   1_655  S
C1804      C1805   1.401   1_556  A
C1804      C1809   1.522       .  S
C1805      C1806   1.410   1_655  A
C1805      H1810   1.083       .  S
C1806      C1807   1.421   1_545  A
C1807      C1808   1.409   1_554  A
C1807      C1811   1.518       .  S
C1808      H1812   1.083       .  S
C1809      F1822   1.385       .  S
C1809      F1823   1.382   1_545  S
C1809      F1824   1.381       .  S
C1811      F1819   1.385       .  S
C1811      F1820   1.383       .  S
C1811      F1821   1.382   1_565  S
C1825      C1826   1.398       .  A
C1825      C1830   1.408       .  A
C1825      H1835   1.083       .  S
C1826      C1831   1.482       .  S
C1826      C1827   1.414       .  A
C1827      C1828   1.405       .  A
C1827      C1832   1.521       .  S
C1828      C1829   1.408       .  A
C1828      H1833   1.083       .  S
C1829      C1830   1.426       .  A
C1830      C1834   1.520       .  S
C1831      C1836   1.416       .  A
C1831      C1840   1.400       .  A
C1832      F1848   1.383       .  S
C1832      F1849   1.383       .  S
C1832      F1850   1.384       .  S
C1834      F1845   1.382       .  S
C1834      F1846   1.385       .  S
C1834      F1847   1.383       .  S
C1836      C1837   1.408       .  A
C1836      C1841   1.518       .  S
C1837      C1838   1.403       .  A
C1837      H1842   1.083       .  S
C1838      C1839   1.416       .  A
C1839      C1840   1.403       .  A
C1839      C1843   1.518       .  S
C1840      H1844   1.083       .  S
C1841      F1854   1.384       .  S
C1841      F1855   1.383       .  S
C1841      F1856   1.383       .  S
C1843      F1851   1.384       .  S
C1843      F1852   1.384       .  S
C1843      F1853   1.381       .  S
C1857      C1858   1.402       .  A
C1857      C1862   1.407       .  A
C1857      H1867   1.083       .  S
C1858      C1863   1.485       .  S
C1858      C1859   1.417       .  A
C1859      C1860   1.406       .  A
C1859      C1864   1.519       .  S
C1860      C1861   1.402       .  A
C1860      H1865   1.083       .  S
C1861      C1862   1.416       .  A
C1862      C1866   1.519       .  S
C1863      C1868   1.416       .  A
C1863      C1872   1.399       .  A
C1864      F1880   1.382       .  S
C1864      F1881   1.382       .  S
C1864      F1882   1.385       .  S
C1866      F1877   1.385       .  S
C1866      F1878   1.383       .  S
C1866      F1879   1.384       .  S
C1868      C1869   1.408       .  A
C1868      C1873   1.519       .  S
C1869      C1870   1.404       .  A
C1869      H1874   1.081       .  S
C1870      C1871   1.422       .  A
C1871      C1872   1.407       .  A
C1871      C1875   1.520       .  S
C1872      H1876   1.083       .  S
C1873      F1886   1.384       .  S
C1873      F1887   1.382       .  S
C1873      F1888   1.383       .  S
C1875      F1883   1.385       .  S
C1875      F1884   1.383       .  S
C1875      F1885   1.382       .  S
C1889      C1890   1.401       .  A
C1889      C1894   1.410       .  A
C1889      H1899   1.083       .  S
C1890      C1895   1.486       .  S
C1890      C1891   1.415       .  A
C1891      C1892   1.407       .  A
C1891      C1896   1.521       .  S
C1892      C1893   1.406       .  A
C1892      H1897   1.083       .  S
C1893      C1894   1.421       .  A
C1894      C1898   1.517       .  S
C1895      C1900   1.410       .  A
C1895      C1904   1.400       .  A
C1896      F1912   1.382       .  S
C1896      F1913   1.382       .  S
C1896      F1914   1.384       .  S
C1898      F1909   1.385       .  S
C1898      F1910   1.382       .  S
C1898      F1911   1.383       .  S
C1900      C1901   1.404       .  A
C1900      C1905   1.521       .  S
C1901      C1902   1.412       .  A
C1901      H1906   1.082       .  S
C1902      C1903   1.430       .  A
C1903      C1904   1.412       .  A
C1903      C1907   1.520       .  S
C1904      H1908   1.083       .  S
C1905      F1918   1.384       .  S
C1905      F1919   1.383       .  S
C1905      F1920   1.382       .  S
C1907      F1915   1.384       .  S
C1907      F1916   1.382       .  S
C1907      F1917   1.385       .  S
C1921      C1922   1.397       .  A
C1921      C1926   1.408       .  A
C1921      H1931   1.083       .  S
C1922      C1927   1.491       .  S
C1922      C1923   1.414       .  A
C1923      C1924   1.413       .  A
C1923      C1928   1.519       .  S
C1924      C1925   1.413       .  A
C1924      H1929   1.082       .  S
C1925      C1926   1.433       .  A
C1926      C1930   1.523       .  S
C1927      C1932   1.420       .  A
C1927      C1936   1.401       .  A
C1928      F1944   1.382       .  S
C1928      F1945   1.382       .  S
C1928      F1946   1.384       .  S
C1930      F1941   1.383       .  S
C1930      F1942   1.385       .  S
C1930      F1943   1.384       .  S
C1932      C1933   1.413       .  A
C1932      C1937   1.519       .  S
C1933      C1934   1.403       .  A
C1933      H1938   1.083       .  S
C1934      C1935   1.418       .  A
C1935      C1936   1.404       .  A
C1935      C1939   1.519       .  S
C1936      H1940   1.085       .  S
C1937      F1950   1.385       .  S
C1937      F1951   1.382       .  S
C1937      F1952   1.381       .  S
C1939      F1947   1.383       .  S
C1939      F1948   1.383       .  S
C1939      F1949   1.384       .  S
