geometry optimzed in LAMMPS
_audit_creation_date              2020-12-01 
_audit_creation_method            'lammps2cif' 
_symmetry_space_group_name_H-M    'P1' 
_symmetry_Int_Tables_number       1 
_symmetry_cell_setting            triclinic 
loop_ 
_symmetry_equiv_pos_as_xyz 
  x,y,z 
_cell_length_a                    36.27213068 
_cell_length_b                    36.11409586059706 
_cell_length_c                    51.5820694969418 
_cell_angle_alpha                 89.6960774908523 
_cell_angle_beta                  90.37065687217145 
_cell_angle_gamma                 89.85770663738121 
loop_ 
_atom_site_label 
_atom_site_type_symbol 
_atom_site_fract_x 
_atom_site_fract_y 
_atom_site_fract_z 
_atom_site_charge 
Zn1        Zn  0.03922001  0.01124580  0.14425059     1.49700
Zn2        Zn  0.99109967  0.04182843  0.09929649     1.49400
Zn3        Zn  0.99333940  0.95347871  0.10879647     1.49100
Zn4        Zn  0.95057632  0.01027837  0.14697028     1.49500
O5          O  0.99348774  0.00326758  0.12491579    -1.82800
O6          O  0.07251725  0.05092507  0.12870768    -0.73400
O7          O  0.98771947  0.01979616  0.06541387    -0.73200
O8          O  0.03804019  0.92383701  0.12204355    -0.72800
O9          O  0.03600490  0.07195716  0.09725053    -0.73400
O10         O  0.06871165  0.96535102  0.14520984    -0.73000
O11         O  0.99277059  0.95856222  0.06856588    -0.73600
O12         O  0.92206871  0.96355642  0.14847484    -0.73000
O13         O  0.94767831  0.07469677  0.10162529    -0.73800
O14         O  0.94873235  0.92394084  0.12167611    -0.73200
O15         O  0.91537749  0.05112208  0.13413193    -0.73600
O16         O  0.96680555  0.01568056  0.18396037    -0.73500
O17         O  0.02808783  0.01704190  0.18200059    -0.73300
C18         C  0.06650026  0.07212313  0.10930747     0.78500
C19         C  0.98937218  0.98823738  0.05503027     0.79000
C20         C  0.06487045  0.93258990  0.13696699     0.77900
C21         C  0.92387368  0.93171571  0.13824317     0.78300
C22         C  0.91900326  0.07416177  0.11549095     0.79400
C23         C  0.99834767  0.01530760  0.19494659     0.78500
Zn24       Zn  0.95304768  0.00769610  0.39422271     1.49700
Zn25       Zn  0.04290998  0.01279271  0.39753218     1.49400
Zn26       Zn  0.00316192  0.95457847  0.35865176     1.49100
Zn27       Zn  0.99928407  0.04338050  0.35051081     1.49500
O28         O  0.99966349  0.00370215  0.37547615    -1.82800
O29         O  0.96459584  0.01396504  0.43189811    -0.73400
O30         O  0.07416891  0.96700221  0.39982583    -0.73200
O31         O  0.96054305  0.92076009  0.37049061    -0.72800
O32         O  0.02583709  0.01861657  0.43432197    -0.73400
O33         O  0.92736877  0.95859269  0.39501199    -0.73000
O34         O  0.04921889  0.92771514  0.37187053    -0.73600
O35         O  0.00266974  0.02254949  0.31629701    -0.73000
O36         O  0.07626778  0.05486193  0.38399715    -0.73800
O37         O  0.00521891  0.96114310  0.31877339    -0.73200
O38         O  0.04148687  0.07752101  0.35216677    -0.73600
O39         O  0.95393336  0.07280420  0.34963088    -0.73500
O40         O  0.91780759  0.04770717  0.37931327    -0.73300
C41         C  0.99439085  0.01550098  0.44505158     0.78500
C42         C  0.07347737  0.93542956  0.38905223     0.79000
C43         C  0.93374686  0.92654412  0.38595051     0.77900
C44         C  0.00524789  0.99128785  0.30558545     0.78300
C45         C  0.07099540  0.07774235  0.36535694     0.79400
C46         C  0.92324272  0.07111990  0.36106082     0.78500
Zn47       Zn  0.24184472  0.20020199  0.03964616     1.49700
Zn48       Zn  0.20970345  0.24418708  0.08548520     1.49400
Zn49       Zn  0.29686372  0.24832515  0.07613532     1.49100
Zn50       Zn  0.23647514  0.28981340  0.03904455     1.49500
O51         O  0.24736221  0.24565372  0.05987846    -1.82800
O52         O  0.19824270  0.16740426  0.05043804    -0.73400
O53         O  0.23072857  0.24027143  0.11933610    -0.73200
O54         O  0.32895152  0.20457031  0.06357156    -0.72800
O55         O  0.17736788  0.20156937  0.08255216    -0.73400
O56         O  0.28876178  0.17089649  0.04108116    -0.73000
O57         O  0.29135419  0.24768638  0.11664288    -0.73600
O58         O  0.27969897  0.32337917  0.03902995    -0.73000
O59         O  0.17905936  0.28896346  0.08758862    -0.73800
O60         O  0.32274166  0.29526207  0.06265546    -0.73200
O61         O  0.19337429  0.32097261  0.05241765    -0.73600
O62         O  0.23330402  0.27546163  0.00154101    -0.73500
O63         O  0.23853721  0.21383456  0.00226345    -0.73300
C64         C  0.17520330  0.17298508  0.06858873     0.78500
C65         C  0.26194501  0.24302692  0.12998064     0.79000
C66         C  0.32126103  0.17629796  0.04971994     0.77900
C67         C  0.31241385  0.32192111  0.04781915     0.78300
C68         C  0.17510423  0.31728288  0.07332755     0.79400
C69         C  0.24200031  0.24245427  0.48986673     0.78500
Zn70       Zn  0.25907872  0.20154797  0.33091046     1.49700
Zn71       Zn  0.20360705  0.24759883  0.29352376     1.49400
Zn72       Zn  0.26139886  0.29119372  0.33050503     1.49100
Zn73       Zn  0.29239257  0.24545464  0.28519929     1.49500
O74         O  0.25312591  0.24656099  0.31008864    -1.82800
O75         O  0.21188351  0.17405770  0.33260149    -0.73400
O76         O  0.17401509  0.29173198  0.30796955    -0.73200
O77         O  0.26614321  0.27626471  0.36791497    -0.72800
O78         O  0.17309643  0.20259483  0.30557420    -0.73400
O79         O  0.26785462  0.21444120  0.36794059    -0.73000
O80         O  0.21548402  0.32210059  0.33110140    -0.73600
O81         O  0.32634569  0.28814608  0.28619304    -0.73000
O82         O  0.21013396  0.24956852  0.25319702    -0.73800
O83         O  0.30440490  0.32338145  0.31740973    -0.73200
O84         O  0.27141129  0.24874947  0.25105071    -0.73600
O85         O  0.32038589  0.19853232  0.28463134    -0.73500
O86         O  0.29690078  0.16561866  0.31686899    -0.73300
C87         C  0.18022388  0.17716096  0.32222466     0.78500
C88         C  0.18244113  0.31829248  0.32319832     0.79000
C89         C  0.26674666  0.24522897  0.37975592     0.77900
C90         C  0.32721975  0.31794785  0.29902575     0.78300
C91         C  0.24019163  0.25010037  0.24017563     0.79400
C92         C  0.31854867  0.16876949  0.29765991     0.78500
Zn93       Zn  0.23336263  0.70469350  0.20840598     1.49700
Zn94       Zn  0.20539167  0.74872859  0.16072950     1.49400
Zn95       Zn  0.23654129  0.79518639  0.20657677     1.49100
Zn96       Zn  0.29281290  0.74790108  0.17210186     1.49500
O97         O  0.24277498  0.74900915  0.18720176    -1.82800
O98         O  0.18923980  0.67296638  0.19551395    -0.73400
O99         O  0.17278691  0.79199462  0.16151614    -0.73200
O100        O  0.23302431  0.78198390  0.24428911    -0.72800
O101        O  0.17345050  0.70458621  0.16026889    -0.73400
O102        O  0.23044315  0.72043549  0.24590161    -0.73000
O103        O  0.19475986  0.82860495  0.19198388    -0.73600
O104        O  0.32361847  0.79158115  0.18489434    -0.73000
O105        O  0.22856459  0.75108486  0.12700345    -0.73800
O106        O  0.28345142  0.82462230  0.20744593    -0.73200
O107        O  0.28954220  0.74839279  0.13215675    -0.73600
O108        O  0.32074296  0.70308085  0.18615450    -0.73500
O109        O  0.27871450  0.67246984  0.20912226    -0.73300
C110        C  0.16931658  0.67690682  0.17511679     0.78500
C111        C  0.17210147  0.82252289  0.17338812     0.79000
C112        C  0.23372597  0.75169993  0.25710060     0.77900
C113        C  0.31603883  0.81904205  0.19938644     0.78300
C114        C  0.26077257  0.75067661  0.11776967     0.79400
C115        C  0.31154187  0.67631484  0.20098628     0.78500
Zn116      Zn  0.21113513  0.74948046  0.41112302     1.49700
Zn117      Zn  0.24027555  0.79321119  0.45857162     1.49400
Zn118      Zn  0.24521474  0.70409932  0.45673159     1.49100
Zn119      Zn  0.29921874  0.75314965  0.42073629     1.49500
O120        O  0.24974397  0.74999841  0.43686612    -1.82800
O121        O  0.17721861  0.79274367  0.41242345    -0.73400
O122        O  0.23511485  0.77761811  0.49568794    -0.73200
O123        O  0.20750765  0.66785424  0.44118797    -0.72800
O124        O  0.19873649  0.82674612  0.44479077    -0.73400
O125        O  0.18320187  0.70222787  0.40967400    -0.73000
O126        O  0.23768425  0.71600039  0.49441665    -0.73600
O127        O  0.33278386  0.71140470  0.43478317    -0.73000
O128        O  0.28537740  0.82361716  0.46111197    -0.73800
O129        O  0.29399123  0.67872562  0.45880372    -0.73200
O130        O  0.32524716  0.79963982  0.43349354    -0.73600
O131        O  0.29440400  0.75383968  0.38055026    -0.73500
O132        O  0.23322017  0.75374628  0.37723511    -0.73300
C133        C  0.17644174  0.82208535  0.42583724     0.78500
C134        C  0.23501295  0.75174222  0.00762097     0.79000
C135        C  0.18546320  0.67172583  0.42192819     0.77900
C136        C  0.32641437  0.68501958  0.45074228     0.78300
C137        C  0.31703427  0.82328767  0.45085311     0.79400
C138        C  0.26472929  0.75507379  0.36697112     0.78500
Zn139      Zn  0.54284915  0.98717744  0.02133194     1.49700
Zn140      Zn  0.49759042  0.04443706  0.48214220     1.49400
Zn141      Zn  0.50199051  0.95510707  0.47633067     1.49100
Zn142      Zn  0.45458264  0.98861576  0.02269475     1.49500
O143        O  0.50081524  0.99570115  0.50019941    -1.82800
O144        O  0.57057520  0.03416375  0.02160825    -0.73400
O145        O  0.49817504  0.03583229  0.44185845    -0.73200
O146        O  0.54708967  0.92418802  0.47738027    -0.72800
O147        O  0.54081447  0.07668750  0.49480918    -0.73400
O148        O  0.57724734  0.94671469  0.00757383    -0.73000
O149        O  0.50153223  0.97425165  0.44132962    -0.73600
O150        O  0.42040503  0.94703264  0.01100166    -0.73000
O151        O  0.45178009  0.07400011  0.49471498    -0.73800
O152        O  0.45810418  0.92366193  0.47765069    -0.73200
O153        O  0.42622377  0.03557911  0.02267205    -0.73600
O154        O  0.46959958  0.98457020  0.05983171    -0.73500
O155        O  0.53090281  0.98201145  0.05908996    -0.73300
C156        C  0.56685932  0.06594898  0.01133416     0.78500
C157        C  0.50000229  0.00499592  0.42963919     0.79000
C158        C  0.57852279  0.92877235  0.48771158     0.77900
C159        C  0.42869549  0.92382201  0.49072924     0.78300
C160        C  0.42683831  0.06679741  0.01126954     0.79400
C161        C  0.50067055  0.98445291  0.07138597     0.78500
Zn162      Zn  0.45611880  0.99974260  0.22902549     1.49700
Zn163      Zn  0.49871831  0.94151478  0.26670946     1.49400
Zn164      Zn  0.54492606  0.00126231  0.23224235     1.49100
Zn165      Zn  0.49876832  0.02973708  0.27704727     1.49500
O166        O  0.49947509  0.99194486  0.25111198    -1.82800
O167        O  0.42793635  0.95256252  0.22558974    -0.73400
O168        O  0.54281395  0.91195541  0.25261069    -0.73200
O169        O  0.53354941  0.01106907  0.19492752    -0.72800
O170        O  0.45298753  0.91284631  0.25374411    -0.73400
O171        O  0.47216992  0.00986039  0.19240481    -0.73000
O172        O  0.57332598  0.95480806  0.23028980    -0.73600
O173        O  0.54103258  0.06385711  0.27730267    -0.73000
O174        O  0.50017420  0.94558940  0.30715019    -0.73800
O175        O  0.57854450  0.04050292  0.24808213    -0.73200
O176        O  0.50051473  0.00696953  0.31104396    -0.73600
O177        O  0.45343676  0.05902443  0.27674955    -0.73500
O178        O  0.42037451  0.03811535  0.24385559    -0.73300
C179        C  0.42906329  0.92076549  0.23622569     0.78500
C180        C  0.56946397  0.92162375  0.23796243     0.79000
C181        C  0.50376788  0.01103626  0.18175819     0.77900
C182        C  0.57199468  0.06346992  0.26615160     0.78300
C183        C  0.50088533  0.97496175  0.32100568     0.79400
C184        C  0.42385704  0.05895552  0.26362904     0.78500
Zn185      Zn  0.79904041  0.74955054  0.20283984     1.49700
Zn186      Zn  0.74072326  0.79256286  0.16414711     1.49400
Zn187      Zn  0.74260245  0.70366603  0.16611628     1.49100
Zn188      Zn  0.71234376  0.75005137  0.21195036     1.49500
O189        O  0.74971487  0.74902477  0.18609537    -1.82800
O190        O  0.82677456  0.79556367  0.19020152    -0.73400
O191        O  0.73814983  0.77785493  0.12662483    -0.73200
O192        O  0.78847242  0.67303476  0.16684085    -0.72800
O193        O  0.78590235  0.82359313  0.16451060    -0.73400
O194        O  0.82948288  0.70492107  0.18998517    -0.73000
O195        O  0.74144293  0.71653543  0.12840708    -0.73600
O196        O  0.68416335  0.70471939  0.21309304    -0.73000
O197        O  0.69703803  0.82481149  0.17583723    -0.73800
O198        O  0.69859701  0.67231839  0.17833094    -0.73200
O199        O  0.67670724  0.79098190  0.20873441    -0.73600
O200        O  0.73319555  0.75491020  0.24627897    -0.73500
O201        O  0.79408420  0.75055615  0.24313622    -0.73300
C202        C  0.81794964  0.82174465  0.17455428     0.78500
C203        C  0.74216308  0.74668352  0.11554752     0.79000
C204        C  0.82111598  0.67773701  0.17528563     0.77900
C205        C  0.67938897  0.67690152  0.19874282     0.78300
C206        C  0.67456917  0.81943600  0.19441781     0.79400
C207        C  0.76479092  0.75404706  0.25667695     0.78500
Zn208      Zn  0.71966409  0.75056584  0.46452071     1.49700
Zn209      Zn  0.75072787  0.79420078  0.41738758     1.49400
Zn210      Zn  0.80674099  0.74531069  0.45268841     1.49100
Zn211      Zn  0.74489938  0.70505150  0.41664275     1.49500
O212        O  0.75630054  0.74872064  0.43771592    -1.82800
O213        O  0.69195769  0.79772357  0.46572763    -0.73400
O214        O  0.79852008  0.82129985  0.41573604    -0.73200
O215        O  0.80427730  0.74416738  0.49287433    -0.72800
O216        O  0.71102477  0.82956455  0.43148154    -0.73400
O217        O  0.74132257  0.74619601  0.99748149    -0.73000
O218        O  0.83866133  0.78855012  0.43926375    -0.73600
O219        O  0.78970113  0.67323675  0.41380061    -0.73000
O220        O  0.74456906  0.78096600  0.38000735    -0.73800
O221        O  0.83219124  0.69878259  0.43884720    -0.73200
O222        O  0.73793641  0.71981749  0.37923755    -0.73600
O223        O  0.70241421  0.67377159  0.43121244    -0.73500
O224        O  0.68445847  0.70877392  0.46398916    -0.73300
C225        C  0.69113120  0.82668157  0.45175202     0.78500
C226        C  0.83110712  0.81562580  0.42403761     0.79000
C227        C  0.77362404  0.74490308  0.00680860     0.77900
C228        C  0.82250332  0.67406342  0.42254558     0.78300
C229        C  0.74203148  0.75070677  0.36757525     0.79400
C230        C  0.68132895  0.67969485  0.45050707     0.78500
Zn231      Zn  0.73103572  0.20354948  0.08415213     1.49700
Zn232      Zn  0.73297250  0.29249157  0.08494510     1.49400
Zn233      Zn  0.78984885  0.24892348  0.04821847     1.49100
Zn234      Zn  0.70300129  0.25034800  0.03698770     1.49500
O235        O  0.74002400  0.24860799  0.06366153    -1.82800
O236        O  0.72627935  0.21616552  0.12223302    -0.73400
O237        O  0.77802713  0.32295017  0.08573144    -0.73200
O238        O  0.81800259  0.20351717  0.06132422    -0.72800
O239        O  0.72892889  0.27767172  0.12195856    -0.73400
O240        O  0.77646412  0.17240025  0.08437563    -0.73000
O241        O  0.81898629  0.29382711  0.06127167    -0.73600
O242        O  0.73349895  0.24595224  0.50292378    -0.73000
O243        O  0.69178610  0.32643115  0.07246310    -0.73800
O244        O  0.78679624  0.25055032  0.00811274    -0.73200
O245        O  0.67122297  0.29457765  0.03866411    -0.73600
O246        O  0.67185051  0.20581696  0.03564209    -0.73500
O247        O  0.68892106  0.17174826  0.06955904    -0.73300
C248        C  0.72855156  0.24696245  0.13412101     0.78500
C249        C  0.81017719  0.32016363  0.07647455     0.79000
C250        C  0.80902402  0.17625728  0.07584375     0.77900
C251        C  0.76592063  0.24293068  0.49438830     0.78300
C252        C  0.67031470  0.32289498  0.05302520     0.79400
C253        C  0.66927099  0.17657732  0.04917196     0.78500
Zn254      Zn  0.79252097  0.25113330  0.29763594     1.49700
Zn255      Zn  0.73728946  0.20490473  0.33458086     1.49400
Zn256      Zn  0.73702355  0.29395317  0.33683159     1.49100
Zn257      Zn  0.70318374  0.25141329  0.29029131     1.49500
O258        O  0.74345988  0.25056844  0.31480951    -1.82800
O259        O  0.82294604  0.20535948  0.30924559    -0.73400
O260        O  0.73565074  0.21634026  0.37221327    -0.73200
O261        O  0.78435886  0.32244740  0.33789856    -0.72800
O262        O  0.78282704  0.17525286  0.33387941    -0.73400
O263        O  0.82294668  0.29585264  0.31066796    -0.73000
O264        O  0.73316056  0.27772724  0.37424093    -0.73600
O265        O  0.66962477  0.29467308  0.29306285    -0.73000
O266        O  0.69659988  0.17108344  0.32131035    -0.73800
O267        O  0.69502628  0.32868471  0.32409712    -0.73200
O268        O  0.67398859  0.20537119  0.28924515    -0.73600
O269        O  0.72347994  0.25455869  0.25580950    -0.73500
O270        O  0.78476270  0.25256776  0.25759462    -0.73300
C271        C  0.81484477  0.17863079  0.32452791     0.78500
C272        C  0.73671895  0.24615520  0.38519495     0.79000
C273        C  0.81611087  0.32060159  0.32765826     0.77900
C274        C  0.67074560  0.32412776  0.30630014     0.78300
C275        C  0.67486164  0.17532400  0.30200856     0.79400
C276        C  0.75445400  0.25440853  0.24470802     0.78500
Zn277      Zn  0.45415590  0.50048121  0.48252120     1.49700
Zn278      Zn  0.49407576  0.46567378  0.02703113     1.49400
Zn279      Zn  0.54278993  0.49719507  0.48017507     1.49100
Zn280      Zn  0.49770459  0.55321927  0.01633663     1.49500
O281        O  0.49505781  0.50322953  0.00088623    -1.82800
O282        O  0.41997443  0.45964422  0.49633676    -0.73400
O283        O  0.53882429  0.43613301  0.02856888    -0.73200
O284        O  0.52619899  0.49165380  0.44357644    -0.72800
O285        O  0.45255334  0.43098923  0.02521115    -0.73400
O286        O  0.46514431  0.49269764  0.44487814    -0.73000
O287        O  0.57706502  0.45630537  0.49313903    -0.73600
O288        O  0.54335621  0.58074646  0.00186882    -0.73000
O289        O  0.49040548  0.48744296  0.06088369    -0.73800
O290        O  0.57326907  0.54216541  0.47791124    -0.73200
O291        O  0.49806788  0.54831721  0.05688886    -0.73600
O292        O  0.45289501  0.58369985  0.00366853    -0.73500
O293        O  0.42831725  0.54958357  0.48209641    -0.73300
C294        C  0.42176962  0.43119604  0.01360479     0.78500
C295        C  0.56620048  0.43088373  0.01402350     0.79000
C296        C  0.49503862  0.49230475  0.43211106     0.77900
C297        C  0.57399073  0.57335108  0.48901775     0.78300
C298        C  0.49339298  0.51915502  0.07081116     0.79400
C299        C  0.43447538  0.58137248  0.49171460     0.78500
Zn300      Zn  0.49506992  0.54693687  0.22737994     1.49700
Zn301      Zn  0.54197127  0.51409878  0.27230785     1.49400
Zn302      Zn  0.45323691  0.51058649  0.27262964     1.49100
Zn303      Zn  0.49919897  0.45738285  0.23416715     1.49500
O304        O  0.49728685  0.50617771  0.25158343    -1.82800
O305        O  0.53952063  0.57787324  0.22737733    -0.73400
O306        O  0.52902290  0.52564080  0.30916090    -0.73200
O307        O  0.41731276  0.55112850  0.26022344    -0.72800
O308        O  0.57665381  0.55182465  0.25655747    -0.73400
O309        O  0.45095191  0.57898267  0.23015069    -0.73000
O310        O  0.46844567  0.51629822  0.30959265    -0.73600
O311        O  0.45359183  0.42632081  0.24426950    -0.73000
O312        O  0.57052743  0.46727978  0.27571575    -0.73800
O313        O  0.42616156  0.46282623  0.27258988    -0.73200
O314        O  0.54400072  0.42732130  0.24881576    -0.73600
O315        O  0.50050846  0.46639470  0.19400722    -0.73500
O316        O  0.49387940  0.52777344  0.19232208    -0.73300
C317        C  0.57052074  0.57547639  0.23867431     0.78500
C318        C  0.49895449  0.52118907  0.32140025     0.79000
C319        C  0.42140854  0.57616687  0.24295218     0.77900
C320        C  0.42817686  0.43205040  0.26087401     0.78300
C321        C  0.56859900  0.43521690  0.26587746     0.79400
C322        C  0.49722347  0.49684727  0.18121788     0.78500
Zn323      Zn  0.99464827  0.54678949  0.10527214     1.49700
Zn324      Zn  0.99357683  0.45809690  0.09636868     1.49400
Zn325      Zn  0.04002862  0.48876674  0.14126613     1.49100
Zn326      Zn  0.95086814  0.48949200  0.14308312     1.49500
O327        O  0.99457291  0.49688892  0.12166341    -1.82800
O328        O  0.99559816  0.54109071  0.06505114    -0.73400
O329        O  0.03468115  0.42252873  0.09858809    -0.73200
O330        O  0.06841334  0.53564534  0.14319623    -0.72800
O331        O  0.99852692  0.47962969  0.06205608    -0.73400
O332        O  0.03993226  0.57632191  0.11779108    -0.73000
O333        O  0.07367628  0.44919203  0.12559561    -0.73600
O334        O  0.96668803  0.48136749  0.18014174    -0.73000
O335        O  0.94737443  0.42976404  0.09548904    -0.73800
O336        O  0.02809064  0.47981786  0.17863781    -0.73200
O337        O  0.91546915  0.44970819  0.12902701    -0.73600
O338        O  0.92302436  0.53703970  0.14546565    -0.73500
O339        O  0.95028091  0.57698697  0.11884782    -0.73300
C340        C  0.99848927  0.51140344  0.05167118     0.78500
C341        C  0.06643106  0.42440402  0.10879520     0.79000
C342        C  0.06582595  0.56808725  0.13375339     0.77900
C343        C  0.99810668  0.48052067  0.19135248     0.78300
C344        C  0.91849198  0.42903858  0.10912374     0.79400
C345        C  0.92578209  0.56936983  0.13582351     0.78500
Zn346      Zn  0.95677680  0.50176444  0.35248952     1.49700
Zn347      Zn  0.00265735  0.44642271  0.39055721     1.49400
Zn348      Zn  0.04648671  0.50196838  0.35139284     1.49100
Zn349      Zn  0.00282916  0.53571421  0.39709498     1.49500
O350        O  0.00225558  0.49544210  0.37276876    -1.82800
O351        O  0.92570904  0.45582710  0.35454420    -0.73400
O352        O  0.04751577  0.41599259  0.37832620    -0.73200
O353        O  0.03123592  0.50804315  0.31385388    -0.72800
O354        O  0.95726745  0.41578306  0.37900689    -0.73400
O355        O  0.96994565  0.50454442  0.31500512    -0.73000
O356        O  0.07450399  0.45436954  0.35036241    -0.73600
O357        O  0.04931615  0.56427963  0.39747422    -0.73000
O358        O  0.00279708  0.45467888  0.43064531    -0.73800
O359        O  0.08263820  0.54160834  0.36550191    -0.73200
O360        O  0.99927167  0.51621951  0.43199450    -0.73600
O361        O  0.96052053  0.56992099  0.39416079    -0.73500
O362        O  0.92525880  0.54629429  0.36343065    -0.73300
C363        C  0.92955794  0.42372410  0.36452397     0.78500
C364        C  0.07218487  0.42294887  0.36138817     0.79000
C365        C  0.00001847  0.50541301  0.30244155     0.77900
C366        C  0.07919634  0.56324428  0.38488833     0.78300
C367        C  0.00029244  0.48509544  0.44325829     0.79400
C368        C  0.93105284  0.57060885  0.38084028     0.78500
C369        C  0.99990005  0.48506825  0.21992334    -0.04000
C370        C  0.97633311  0.46479005  0.23630383    -0.01100
C371        C  0.97576387  0.47204293  0.26314593     0.03900
C372        C  0.99874376  0.49991752  0.27389076    -0.04000
C373        C  0.02214303  0.52032844  0.25744692    -0.01100
C374        C  0.02258251  0.51314704  0.23061919     0.03900
C375        C  0.95309876  0.43588486  0.22563581     0.38500
C376        C  0.04485380  0.54980383  0.26793112     0.38500
C377        C  0.04500550  0.53638007  0.21394798     0.36900
C378        C  0.95223109  0.44972700  0.27968038     0.36900
N379        N  0.06287628  0.55521844  0.20089944    -0.37900
N380        N  0.93333941  0.43191800  0.29273140    -0.37900
N381        N  0.06296409  0.57331911  0.27624355    -0.37300
N382        N  0.93452539  0.41283424  0.21719454    -0.37300
C383        C  0.99951743  0.48664570  0.47189594    -0.04000
C384        C  0.96859456  0.50281106  0.48411758    -0.01100
C385        C  0.96907674  0.51808179  0.00811144     0.03900
C386        C  0.00102790  0.51152673  0.02308847    -0.04000
C387        C  0.03221860  0.49509444  0.01142218    -0.01100
C388        C  0.03262779  0.48206446  0.48602055     0.03900
C389        C  0.93469111  0.50860249  0.46953906     0.38500
C390        C  0.06606552  0.49067917  0.02628437     0.38500
C391        C  0.06469770  0.46626065  0.47351409     0.36900
C392        C  0.93713453  0.53521249  0.01989647     0.36900
N393        N  0.09020231  0.45356261  0.46350206    -0.37900
N394        N  0.91175285  0.54903168  0.02932496    -0.37900
N395        N  0.09315494  0.48735788  0.03805818    -0.37300
N396        N  0.90769285  0.51330224  0.45788693    -0.37300
C397        C  0.49417889  0.49684794  0.40330772    -0.04000
C398        C  0.46604372  0.51834706  0.39110830    -0.01100
C399        C  0.46924165  0.52895048  0.36487259     0.03900
C400        C  0.49964071  0.51705669  0.35008910    -0.04000
C401        C  0.52757849  0.49535487  0.36213082    -0.01100
C402        C  0.52449634  0.48478781  0.38835285     0.03900
C403        C  0.43353989  0.53002976  0.40521795     0.38500
C404        C  0.55936677  0.48275746  0.34757008     0.38500
C405        C  0.55206958  0.46006141  0.39953318     0.36900
C406        C  0.44162495  0.55325140  0.35329115     0.36900
N407        N  0.57402548  0.44030320  0.40836105    -0.37900
N408        N  0.41971290  0.57272997  0.34410631    -0.37900
N409        N  0.58497112  0.47284247  0.33623923    -0.37300
N410        N  0.40731912  0.53919497  0.41616235    -0.37300
C411        C  0.49750151  0.49859917  0.15254590    -0.04000
C412        C  0.52767339  0.51564066  0.14000429    -0.01100
C413        C  0.52538436  0.52561875  0.11354162     0.03900
C414        C  0.49253800  0.51950513  0.09949976    -0.04000
C415        C  0.46198677  0.50333855  0.11222969    -0.01100
C416        C  0.46458073  0.49264148  0.13855286     0.03900
C417        C  0.56131514  0.52286184  0.15438171     0.38500
C418        C  0.42778001  0.49759525  0.09806497     0.38500
C419        C  0.43315134  0.47609899  0.15140275     0.36900
C420        C  0.55743519  0.54051388  0.10046203     0.36900
N421        N  0.40813586  0.46276790  0.16163731    -0.37900
N422        N  0.58307147  0.55222716  0.09002676    -0.37900
N423        N  0.40053071  0.49307825  0.08673160    -0.37300
N424        N  0.58828672  0.52875356  0.16567427    -0.37300
C425        C  0.84576082  0.34694507  0.33704914    -0.04000
C426        C  0.88381499  0.33725346  0.33606113    -0.01100
C427        C  0.91120269  0.36149900  0.34597944     0.03900
C428        C  0.90117574  0.39518378  0.35787025    -0.04000
C429        C  0.86345948  0.40376497  0.36043950    -0.01100
C430        C  0.83606938  0.38074935  0.34946742     0.03900
C431        C  0.89525443  0.30184997  0.32560934     0.38500
C432        C  0.85270145  0.43556561  0.37574148     0.38500
C433        C  0.79790886  0.39278567  0.35089598     0.36900
C434        C  0.94988508  0.35190508  0.34355728     0.36900
N435        N  0.76754828  0.40250731  0.35221974    -0.37900
N436        N  0.98070656  0.34407341  0.34168888    -0.37900
N437        N  0.84412383  0.46034977  0.38849474    -0.37300
N438        N  0.90453101  0.27356730  0.31741055    -0.37300
C439        C  0.64435913  0.35415616  0.29897483    -0.04000
C440        C  0.60605163  0.34712846  0.29820202    -0.01100
C441        C  0.58142507  0.37341220  0.28722943     0.03900
C442        C  0.59488083  0.40648360  0.27598329    -0.04000
C443        C  0.63316066  0.41402172  0.27765268    -0.01100
C444        C  0.65770083  0.38800697  0.28901297     0.03900
C445        C  0.59184226  0.31309721  0.30932620     0.38500
C446        C  0.64765599  0.44860781  0.26772330     0.38500
C447        C  0.69700756  0.39547849  0.28946422     0.36900
C448        C  0.54205326  0.36773371  0.28953589     0.36900
N449        N  0.72835414  0.40138172  0.28980934    -0.37900
N450        N  0.51069486  0.36345631  0.29208588    -0.37900
N451        N  0.65982179  0.47620461  0.26023845    -0.37300
N452        N  0.58048120  0.28598824  0.31824062    -0.37300
C453        C  0.76854459  0.23874556  0.46606902    -0.04000
C454        C  0.78038532  0.26875209  0.45086302    -0.01100
C455        C  0.77052389  0.27083963  0.42441201     0.03900
C456        C  0.74660643  0.24395425  0.41331564    -0.04000
C457        C  0.73663950  0.21269354  0.42844591    -0.01100
C458        C  0.74871929  0.20963557  0.45438680     0.03900
C459        C  0.80109103  0.29854650  0.46275111     0.38500
C460        C  0.71298624  0.18407515  0.41785417     0.38500
C461        C  0.73998045  0.17681257  0.46951974     0.36900
C462        C  0.78627972  0.30020417  0.40872720     0.36900
N463        N  0.73323172  0.15060942  0.48158661    -0.37900
N464        N  0.79937654  0.32361553  0.39649802    -0.37900
N465        N  0.69413737  0.16116286  0.40952048    -0.37300
N466        N  0.81745690  0.32252471  0.47209699    -0.37300
C467        C  0.75294179  0.25556950  0.21596374    -0.04000
C468        C  0.76943050  0.22735465  0.20120063    -0.01100
C469        C  0.76080919  0.22381490  0.17457141     0.03900
C470        C  0.73447572  0.24771699  0.16268814    -0.04000
C471        C  0.71800349  0.27591359  0.17757425    -0.01100
C472        C  0.72797679  0.28049101  0.20377493     0.03900
C473        C  0.79398251  0.20085199  0.21359659     0.38500
C474        C  0.68964480  0.29951382  0.16623012     0.38500
C475        C  0.71217324  0.31095093  0.21833291     0.36900
C476        C  0.77995893  0.19608942  0.15941542     0.36900
N477        N  0.69958673  0.33521285  0.22991051    -0.37900
N478        N  0.79541818  0.17397549  0.14746250    -0.37900
N479        N  0.66689101  0.31815329  0.15721348    -0.37300
N480        N  0.81347290  0.17950897  0.22339058    -0.37300
C481        C  0.83781168  0.34806012  0.08466479    -0.04000
C482        C  0.84368714  0.35482190  0.11140260    -0.01100
C483        C  0.86869078  0.38239662  0.11953455     0.03900
C484        C  0.88847460  0.40322001  0.10100742    -0.04000
C485        C  0.88143075  0.39723269  0.07418407    -0.01100
C486        C  0.85650866  0.36956457  0.06613066     0.03900
C487        C  0.82492862  0.33241755  0.13070247     0.38500
C488        C  0.89874615  0.42040608  0.05465897     0.38500
C489        C  0.84916072  0.36403283  0.03872368     0.36900
C490        C  0.87458482  0.38846957  0.14702688     0.36900
N491        N  0.84319694  0.35958642  0.01689259    -0.37900
N492        N  0.87900437  0.39338720  0.16897823    -0.37900
N493        N  0.91243944  0.43885557  0.03904902    -0.37300
N494        N  0.81004609  0.31453368  0.14608510    -0.37300
C495        C  0.59352157  0.40267183  0.02274672    -0.04000
C496        C  0.63173600  0.41032246  0.02240460    -0.01100
C497        C  0.65691351  0.38528504  0.03402782     0.03900
C498        C  0.64406539  0.35239780  0.04576055    -0.04000
C499        C  0.60606765  0.34486728  0.04637334    -0.01100
C500        C  0.58087371  0.36961737  0.03475866     0.03900
C501        C  0.64331179  0.45876230  0.53318676     0.38500
C502        C  0.59290600  0.31166271  0.05932368     0.38500
C503        C  0.54189233  0.36038802  0.03477269     0.36900
C504        C  0.69614657  0.39301582  0.03355928     0.36900
N505        N  0.51085134  0.35302901  0.03489943    -0.37900
N506        N  0.72743946  0.39917968  0.03326871    -0.37900
N507        N  0.58249586  0.28531671  0.06981188    -0.37300
N508        N  0.64949203  0.49000967  0.53542346    -0.37300
C509        C  0.85036280  0.64730015  0.41171414    -0.04000
C510        C  0.88819056  0.65719820  0.41022885    -0.01100
C511        C  0.91388914  0.63349313  0.39818497     0.03900
C512        C  0.90266679  0.59915197  0.38763340    -0.04000
C513        C  0.86468785  0.59054996  0.38719942    -0.01100
C514        C  0.83893673  0.61370666  0.39977481     0.03900
C515        C  0.90115897  0.69231216  0.42035577     0.38500
C516        C  0.85161352  0.55814833  0.37344960     0.38500
C517        C  0.80068748  0.60199081  0.40054836     0.36900
C518        C  0.95192447  0.64550315  0.39561775     0.36900
N519        N  0.77031175  0.59229389  0.40078386    -0.37900
N520        N  0.98214622  0.65518674  0.39347124    -0.37900
N521        N  0.84085483  0.53293585  0.36192522    -0.37300
N522        N  0.91172347  0.72022689  0.42842108    -0.37300
C523        C  0.65326801  0.65197489  0.45866948    -0.04000
C524        C  0.66342066  0.61458905  0.46268879    -0.01100
C525        C  0.63795970  0.58920662  0.47326297     0.03900
C526        C  0.60184896  0.60085206  0.47993913    -0.04000
C527        C  0.59145391  0.63807896  0.47524271    -0.01100
C528        C  0.61720709  0.66360261  0.46520831     0.03900
C529        C  0.70075865  0.60246551  0.45730128     0.38500
C530        C  0.60362785  0.62283572  0.02175379     0.38500
C531        C  0.60627560  0.70194746  0.46133625     0.36900
C532        C  0.64939833  0.55105166  0.47738535     0.36900
N533        N  0.59767464  0.73258017  0.45846424    -0.37900
N534        N  0.65870307  0.52063507  0.48029380    -0.37900
N535        N  0.59631439  0.62152273  0.04354383    -0.37300
N536        N  0.73053600  0.59260135  0.45323369    -0.37300
C537        C  0.76520265  0.75636047  0.28537754    -0.04000
C538        C  0.74389164  0.78423981  0.29742459    -0.01100
C539        C  0.73490800  0.78156994  0.32390337     0.03900
C540        C  0.74794141  0.75142812  0.33897720    -0.04000
C541        C  0.77075040  0.72435411  0.32711045    -0.01100
C542        C  0.77894034  0.72668317  0.30040720     0.03900
C543        C  0.73045764  0.81562356  0.28236685     0.38500
C544        C  0.78670611  0.69428260  0.34224486     0.38500
C545        C  0.79993757  0.69744165  0.28814464     0.36900
C546        C  0.71105480  0.80934556  0.33530537     0.36900
N547        N  0.81657576  0.67398803  0.27842753    -0.37900
N548        N  0.69203190  0.83149315  0.34436168    -0.37900
N549        N  0.79964102  0.67012733  0.35402162    -0.37300
N550        N  0.71956108  0.84068775  0.27051744    -0.37300
C551        C  0.77557623  0.74048346  0.03525933    -0.04000
C552        C  0.78752105  0.77006263  0.05071164    -0.01100
C553        C  0.77603977  0.77256823  0.07675483     0.03900
C554        C  0.75210765  0.74535248  0.08749930    -0.04000
C555        C  0.74241339  0.71431637  0.07223352    -0.01100
C556        C  0.75511568  0.71147055  0.04657796     0.03900
C557        C  0.81103041  0.79833342  0.03959437     0.38500
C558        C  0.71805223  0.68590888  0.08230806     0.38500
C559        C  0.74680471  0.67869554  0.03143786     0.36900
C560        C  0.78957023  0.80309391  0.09231753     0.36900
N561        N  0.74045150  0.65250216  0.01938842    -0.37900
N562        N  0.80046739  0.82760728  0.10450680    -0.37900
N563        N  0.69855340  0.66325144  0.09023108    -0.37300
N564        N  0.83011264  0.82070877  0.03084458    -0.37300
C565        C  0.85012555  0.65200354  0.16573143    -0.04000
C566        C  0.85707000  0.64987311  0.13876405    -0.01100
C567        C  0.88200216  0.62334870  0.12891231     0.03900
C568        C  0.90059361  0.59879244  0.14592616    -0.04000
C569        C  0.89445287  0.60181200  0.17305647    -0.01100
C570        C  0.86927193  0.62819257  0.18281988     0.03900
C571        C  0.83878360  0.67537734  0.12101732     0.38500
C572        C  0.91437274  0.57810278  0.19117924     0.38500
C573        C  0.86208411  0.62995096  0.21040684     0.36900
C574        C  0.88716814  0.62031917  0.10113728     0.36900
N575        N  0.85629671  0.63123414  0.23241711    -0.37900
N576        N  0.89116367  0.61782850  0.07897132    -0.37900
N577        N  0.93014304  0.55921703  0.20569290    -0.37300
N578        N  0.82446100  0.69575239  0.10677175    -0.37300
C579        C  0.65062998  0.65018010  0.20703268    -0.04000
C580        C  0.61824074  0.66375499  0.21915196    -0.01100
C581        C  0.59327989  0.63919303  0.23076091     0.03900
C582        C  0.59970705  0.60080995  0.22989555    -0.04000
C583        C  0.63126961  0.58696048  0.21727494    -0.01100
C584        C  0.65682557  0.61156480  0.20598297     0.03900
C585        C  0.61002288  0.70313272  0.21967988     0.38500
C586        C  0.63666882  0.54735841  0.21485678     0.38500
C587        C  0.68982573  0.59701350  0.19395006     0.36900
C588        C  0.56095523  0.65352007  0.24392292     0.36900
N589        N  0.71611364  0.58531615  0.18434241    -0.37900
N590        N  0.53527277  0.66495223  0.25443818    -0.37900
N591        N  0.64089424  0.51581186  0.21241364    -0.37300
N592        N  0.60336419  0.73444676  0.22050995    -0.37300
C593        C  0.64730085  0.84787029  0.20197920    -0.04000
C594        C  0.65968908  0.87923179  0.21564468    -0.01100
C595        C  0.63433244  0.90224087  0.22848814     0.03900
C596        C  0.59621506  0.89406242  0.22790698    -0.04000
C597        C  0.58372046  0.86284451  0.21392989    -0.01100
C598        C  0.60920907  0.84003452  0.20083950     0.03900
C599        C  0.69884635  0.88696344  0.21750853     0.38500
C600        C  0.54458471  0.85486948  0.21221840     0.38500
C601        C  0.59623133  0.80908054  0.18551410     0.36900
C602        C  0.64769886  0.93389338  0.24298320     0.36900
N603        N  0.58577281  0.78467373  0.17303477    -0.37900
N604        N  0.65832018  0.95914594  0.25452887    -0.37900
N605        N  0.51337405  0.84848217  0.21088761    -0.37300
N606        N  0.73005624  0.89307538  0.21925645    -0.37300
C607        C  0.60069229  0.08991444  0.27532053    -0.04000
C608        C  0.60433271  0.09749443  0.30223369    -0.01100
C609        C  0.62920912  0.12464946  0.31107096     0.03900
C610        C  0.65073012  0.14460471  0.29320584    -0.04000
C611        C  0.64833689  0.13600155  0.26643328    -0.01100
C612        C  0.62347107  0.10879959  0.25755462     0.03900
C613        C  0.58246873  0.07752719  0.32115685     0.38500
C614        C  0.67175552  0.15489887  0.24785688     0.38500
C615        C  0.62037934  0.10151041  0.22997839     0.36900
C616        C  0.63138221  0.13310757  0.33852915     0.36900
N617        N  0.61796940  0.09573066  0.20798305    -0.37900
N618        N  0.63303588  0.13980626  0.36042216    -0.37900
N619        N  0.69032492  0.16998922  0.23302469    -0.37300
N620        N  0.56490311  0.06216283  0.33643140    -0.37300
C621        C  0.50131119  0.97444412  0.34963784    -0.04000
C622        C  0.53454649  0.98287961  0.36269334    -0.01100
C623        C  0.53389862  0.99709183  0.38816426     0.03900
C624        C  0.50000733  0.00220744  0.40103773    -0.04000
C625        C  0.46688118  0.99235042  0.38828830    -0.01100
C626        C  0.46754309  0.97862215  0.36271406     0.03900
C627        C  0.56944212  0.97706160  0.34971396     0.38500
C628        C  0.43204626  0.99587734  0.40172140     0.38500
C629        C  0.43336205  0.96934372  0.34953729     0.36900
C630        C  0.56818986  0.00593831  0.40135257     0.36900
N631        N  0.40617237  0.96188364  0.33895182    -0.37900
N632        N  0.59554577  0.01298770  0.41187104    -0.37900
N633        N  0.40428206  0.99871453  0.41246664    -0.37300
N634        N  0.59726086  0.97229890  0.33936755    -0.37300
C635        C  0.50176699  0.99124433  0.09967142    -0.04000
C636        C  0.48165934  0.02141034  0.11010041    -0.01100
C637        C  0.48363493  0.02919190  0.13681568     0.03900
C638        C  0.50594262  0.00724509  0.15324860    -0.04000
C639        C  0.52720651  0.97806451  0.14263111    -0.01100
C640        C  0.52506379  0.97012693  0.11596934     0.03900
C641        C  0.46017119  0.04568334  0.09325482     0.38500
C642        C  0.55021174  0.95485356  0.15918111     0.38500
C643        C  0.54594820  0.93934889  0.10549796     0.36900
C644        C  0.46352560  0.06046035  0.14730119     0.36900
N645        N  0.56261955  0.91481103  0.09718648    -0.37900
N646        N  0.44762035  0.08550063  0.15562288    -0.37900
N647        N  0.56878395  0.93617192  0.17207315    -0.37300
N648        N  0.44321900  0.06528836  0.07992038    -0.37300
C649        C  0.60994083  0.90558641  0.47811725    -0.04000
C650        C  0.63847910  0.89346969  0.49498141    -0.01100
C651        C  0.66630846  0.86941784  0.48585657     0.03900
C652        C  0.66592968  0.85703416  0.45983192    -0.04000
C653        C  0.63887120  0.87073023  0.44260670    -0.01100
C654        C  0.61117961  0.89495096  0.45156177     0.03900
C655        C  0.64855093  0.94888925  0.98381743     0.38500
C656        C  0.63830805  0.85838768  0.41586293     0.38500
C657        C  0.58402356  0.90869859  0.43305310     0.36900
C658        C  0.69555555  0.85740843  0.50335227     0.36900
N659        N  0.56237592  0.91912947  0.41812573    -0.37900
N660        N  0.73409719  0.90846424  0.96402099    -0.37900
N661        N  0.63776450  0.84851520  0.39455679    -0.37300
N662        N  0.65651567  0.97887530  0.98929167    -0.37300
C663        C  0.59210582  0.09535787  0.02049730    -0.04000
C664        C  0.59208548  0.10524288  0.04704365    -0.01100
C665        C  0.61766320  0.13122816  0.05667039     0.03900
C666        C  0.64353825  0.14749117  0.03983630    -0.04000
C667        C  0.64379037  0.13719124  0.01329631    -0.01100
C668        C  0.61806800  0.11131967  0.00369825     0.03900
C669        C  0.56525349  0.08904886  0.06448447     0.38500
C670        C  0.64591243  0.17972198  0.49423101     0.38500
C671        C  0.60112235  0.12152471  0.47599692     0.36900
C672        C  0.61653148  0.14200828  0.08371631     0.36900
N673        N  0.59672883  0.11788540  0.45391249    -0.37900
N674        N  0.61558324  0.15058802  0.10528990    -0.37900
N675        N  0.65698028  0.20075529  0.47918645    -0.37300
N676        N  0.54393881  0.07618777  0.07846096    -0.37300
C677        C  0.16203557  0.64035867  0.41277391    -0.04000
C678        C  0.14126057  0.61917509  0.43041620    -0.01100
C679        C  0.11557715  0.59287941  0.42124232     0.03900
C680        C  0.11021398  0.58734394  0.39416932    -0.04000
C681        C  0.13333725  0.60633381  0.37663689    -0.01100
C682        C  0.15894509  0.63277964  0.38586622     0.03900
C683        C  0.14516301  0.62534273  0.45808272     0.38500
C684        C  0.13023526  0.59964409  0.34901128     0.38500
C685        C  0.18251631  0.65195375  0.36753933     0.36900
C686        C  0.09493174  0.57128774  0.44000015     0.36900
N687        N  0.20133859  0.66724681  0.35296889    -0.37900
N688        N  0.07850256  0.55430858  0.45508302    -0.37900
N689        N  0.12805280  0.59423300  0.32695921    -0.37300
N690        N  0.14832820  0.63012453  0.48015185    -0.37300
C691        C  0.35714608  0.66193803  0.46181924    -0.04000
C692        C  0.38670950  0.64952526  0.44634370    -0.01100
C693        C  0.41356422  0.62523134  0.45692495     0.03900
C694        C  0.41068122  0.61241990  0.48276918    -0.04000
C695        C  0.38309900  0.62691092  0.49881781    -0.01100
C696        C  0.35671582  0.65190043  0.48855838     0.03900
C697        C  0.38897633  0.66046608  0.41932410     0.38500
C698        C  0.34706139  0.56177314  0.99328723     0.38500
C699        C  0.32966796  0.66780146  0.50592251     0.36900
C700        C  0.44468760  0.61367662  0.44135513     0.36900
N701        N  0.30834428  0.68036626  0.51998417    -0.37900
N702        N  0.46983127  0.60469299  0.42918020    -0.37900
N703        N  0.33681584  0.53470776  0.00292901    -0.37300
N704        N  0.39095353  0.66912597  0.39774458    -0.37300
C705        C  0.39940503  0.89712168  0.48317602    -0.04000
C706        C  0.40925366  0.86114725  0.47485249    -0.01100
C707        C  0.38262262  0.83751996  0.46382433     0.03900
C708        C  0.34553266  0.84941255  0.46100661    -0.04000
C709        C  0.33539252  0.88478146  0.47063709    -0.01100
C710        C  0.36223211  0.90859514  0.48130926     0.03900
C711        C  0.43009076  0.84262918  0.00352539     0.38500
C712        C  0.29730840  0.89715991  0.46988586     0.38500
C713        C  0.35157021  0.94559710  0.48929178     0.36900
C714        C  0.39342832  0.80015599  0.45675607     0.36900
N715        N  0.34292138  0.97507583  0.49555909    -0.37900
N716        N  0.40217234  0.77037789  0.45126329    -0.37900
N717        N  0.26703046  0.90730821  0.47001696    -0.37300
N718        N  0.45434994  0.83041700  0.01551430    -0.37300
C719        C  0.24269333  0.75301270  0.28544787    -0.04000
C720        C  0.23132806  0.78347731  0.30064835    -0.01100
C721        C  0.24265126  0.78622254  0.32675429     0.03900
C722        C  0.26447999  0.75810358  0.33836004    -0.04000
C723        C  0.27716258  0.72852658  0.32318115    -0.01100
C724        C  0.26677057  0.72612557  0.29678952     0.03900
C725        C  0.20684188  0.81156084  0.28991001     0.38500
C726        C  0.29943963  0.69954627  0.33506631     0.38500
C727        C  0.28170656  0.69611048  0.28145191     0.36900
C728        C  0.23088778  0.81771398  0.34210638     0.36900
N729        N  0.29376635  0.67200124  0.26946256    -0.37900
N730        N  0.22152978  0.84271562  0.35439869    -0.37900
N731        N  0.31714492  0.67639279  0.34454340    -0.37300
N732        N  0.18734241  0.83406040  0.28146881    -0.37300
C733        C  0.26272279  0.75329087  0.08932796    -0.04000
C734        C  0.26981397  0.72137908  0.07469700    -0.01100
C735        C  0.26067634  0.72062337  0.04806909     0.03900
C736        C  0.24245813  0.75137523  0.03615187    -0.04000
C737        C  0.23596187  0.78356846  0.05109413    -0.01100
C738        C  0.24738085  0.78486933  0.07719651     0.03900
C739        C  0.28518786  0.68876802  0.08734940     0.38500
C740        C  0.21614953  0.81503932  0.04017523     0.38500
C741        C  0.24278952  0.81872255  0.09193288     0.36900
C742        C  0.27096815  0.68825122  0.03317791     0.36900
N743        N  0.23933159  0.84574306  0.10364428    -0.37900
N744        N  0.27941968  0.66232220  0.02151752    -0.37900
N745        N  0.20025867  0.84010498  0.03154098    -0.37300
N746        N  0.29733086  0.66274460  0.09746896    -0.37300
C747        C  0.09274295  0.59674175  0.14314694    -0.04000
C748        C  0.08170496  0.63405686  0.14680195    -0.01100
C749        C  0.10619593  0.65985429  0.15819724     0.03900
C750        C  0.14155683  0.64859324  0.16706743    -0.04000
C751        C  0.15203059  0.61120699  0.16434463    -0.01100
C752        C  0.12859471  0.58588571  0.15154453     0.03900
C753        C  0.04477790  0.64605535  0.13965076     0.38500
C754        C  0.18726004  0.59863275  0.17446126     0.38500
C755        C  0.14237233  0.54895602  0.14610984     0.36900
C756        C  0.09447341  0.69801379  0.16149176     0.36900
N757        N  0.15349157  0.51962016  0.14163817    -0.37900
N758        N  0.08514710  0.72843766  0.16409122    -0.37900
N759        N  0.21497795  0.58824181  0.18300171    -0.37300
N760        N  0.01533987  0.65574171  0.13402072    -0.37300
C761        C  0.39065807  0.60109467  0.23539868    -0.04000
C762        C  0.39317696  0.63947509  0.24002626    -0.01100
C763        C  0.36789975  0.66417615  0.22813542     0.03900
C764        C  0.34021366  0.65064009  0.21123301    -0.04000
C765        C  0.33798934  0.61231008  0.20644620    -0.01100
C766        C  0.36264784  0.58754695  0.21886499     0.03900
C767        C  0.42173945  0.65345938  0.25714995     0.38500
C768        C  0.31243990  0.59868597  0.18705698     0.38500
C769        C  0.36023316  0.54814090  0.21375078     0.36900
C770        C  0.37026253  0.70355068  0.23342689     0.36900
N771        N  0.35832354  0.51669216  0.20977767    -0.37900
N772        N  0.37214139  0.73496317  0.23756586    -0.37900
N773        N  0.29296216  0.58767901  0.17103375    -0.37300
N774        N  0.44443009  0.66460051  0.27089940    -0.37300
C775        C  0.40198041  0.89254280  0.22713337    -0.04000
C776        C  0.37809645  0.87489658  0.24474439    -0.01100
C777        C  0.35050812  0.85053320  0.23562031     0.03900
C778        C  0.34605918  0.84398836  0.20868106    -0.04000
C779        C  0.37052053  0.86095276  0.19111194    -0.01100
C780        C  0.39845467  0.88492103  0.20028065     0.03900
C781        C  0.38095135  0.88287159  0.27221938     0.38500
C782        C  0.36617224  0.85476436  0.16349621     0.38500
C783        C  0.42407860  0.90126694  0.18201627     0.36900
C784        C  0.32731684  0.83141986  0.25418137     0.36900
N785        N  0.44460425  0.91418546  0.16747327    -0.37900
N786        N  0.30904967  0.81611969  0.26908323    -0.37900
N787        N  0.36255913  0.84986821  0.14146997    -0.37300
N788        N  0.38314236  0.88933874  0.29412577    -0.37300
C789        C  0.15325212  0.34447550  0.33330395    -0.04000
C790        C  0.15857289  0.36333775  0.35736658    -0.01100
C791        C  0.13133312  0.38763974  0.36702811     0.03900
C792        C  0.09849344  0.39377746  0.35307498    -0.04000
C793        C  0.09273522  0.37528133  0.32935299    -0.01100
C794        C  0.11946687  0.35029859  0.31972933     0.03900
C795        C  0.19174677  0.35788101  0.37284251     0.38500
C796        C  0.05951877  0.38295268  0.31436921     0.38500
C797        C  0.11202197  0.33143017  0.29550653     0.36900
C798        C  0.13761474  0.40750007  0.39106074     0.36900
N799        N  0.10572086  0.31629000  0.27626401    -0.37900
N800        N  0.14266771  0.42345786  0.41014944    -0.37900
N801        N  0.03319023  0.38939984  0.30235842    -0.37300
N802        N  0.21809232  0.35383838  0.38533727    -0.37300
C803        C  0.35388471  0.34733495  0.29063018    -0.04000
C804        C  0.38819231  0.33733966  0.27951770    -0.01100
C805        C  0.41082031  0.36429693  0.26758693     0.03900
C806        C  0.40105382  0.40230706  0.26829418    -0.04000
C807        C  0.36631254  0.41214634  0.27894053    -0.01100
C808        C  0.34309364  0.38500450  0.29002005     0.03900
C809        C  0.40107092  0.29925151  0.28096464     0.38500
C810        C  0.35314521  0.45012681  0.27735598     0.38500
C811        C  0.30734016  0.39607235  0.29990270     0.36900
C812        C  0.44369783  0.35225359  0.25412177     0.36900
N813        N  0.27888417  0.40501805  0.30777239    -0.37900
N814        N  0.46944897  0.34222117  0.24300441    -0.37900
N815        N  0.34257359  0.48035463  0.27606390    -0.37300
N816        N  0.41145418  0.26895229  0.28219452    -0.37300
C817        C  0.39333481  0.08356384  0.27247324    -0.04000
C818        C  0.36906273  0.10075781  0.25451530    -0.01100
C819        C  0.34318874  0.12713592  0.26310188     0.03900
C820        C  0.34192723  0.13727247  0.28956265    -0.04000
C821        C  0.36450295  0.11871723  0.30772259    -0.01100
C822        C  0.38961223  0.09155421  0.29935984     0.03900
C823        C  0.37152637  0.09277152  0.22703751     0.38500
C824        C  0.36338949  0.12893439  0.33491385     0.38500
C825        C  0.41154131  0.07206532  0.31878538     0.36900
C826        C  0.31759440  0.14374728  0.24461243     0.36900
N827        N  0.42903629  0.05694444  0.33443190    -0.37900
N828        N  0.29712263  0.15689115  0.22990007    -0.37900
N829        N  0.36263624  0.13717359  0.35655914    -0.37300
N830        N  0.37341454  0.08648433  0.20510516    -0.37300
C831        C  0.26099967  0.24463507  0.40795366    -0.04000
C832        C  0.22619257  0.25521582  0.41773935    -0.01100
C833        C  0.21958191  0.25405850  0.44457854     0.03900
C834        C  0.24699636  0.24041286  0.46155454    -0.04000
C835        C  0.28109674  0.22791746  0.45156037    -0.01100
C836        C  0.28828816  0.23064403  0.42482615     0.03900
C837        C  0.19645617  0.26531585  0.40007230     0.38500
C838        C  0.30924377  0.21307227  0.46880030     0.38500
C839        C  0.32395531  0.21987874  0.41470579     0.36900
C840        C  0.18427370  0.26596906  0.45468831     0.36900
N841        N  0.35244952  0.21152626  0.40659820    -0.37900
N842        N  0.15613707  0.27547310  0.46279132    -0.37900
N843        N  0.33167906  0.20085774  0.48240923    -0.37300
N844        N  0.17254517  0.27275644  0.38600810    -0.37300
C845        C  0.26120678  0.24244900  0.15871796    -0.04000
C846        C  0.27364799  0.27339946  0.17275743    -0.01100
C847        C  0.26397243  0.27748209  0.19905128     0.03900
C848        C  0.24132681  0.25088441  0.21150420    -0.04000
C849        C  0.22872183  0.22006741  0.19745581    -0.01100
C850        C  0.23902934  0.21554555  0.17134277     0.03900
C851        C  0.29496062  0.30194112  0.15987848     0.38500
C852        C  0.20616982  0.19230661  0.21013919     0.38500
C853        C  0.22669430  0.18297680  0.15736112     0.36900
C854        C  0.27732885  0.30929732  0.21339914     0.36900
N855        N  0.21678300  0.15707547  0.14620968    -0.37900
N856        N  0.28808392  0.33458575  0.22485177    -0.37900
N857        N  0.18808106  0.17026366  0.22026218    -0.37300
N858        N  0.31186427  0.32476005  0.14958131    -0.37300
C859        C  0.09533626  0.39788805  0.09970035    -0.04000
C860        C  0.12316973  0.38464156  0.11672549    -0.01100
C861        C  0.14946047  0.35869963  0.10797638     0.03900
C862        C  0.14880895  0.34628545  0.08192776    -0.04000
C863        C  0.12163154  0.35992053  0.06478771    -0.01100
C864        C  0.09498121  0.38537281  0.07352521     0.03900
C865        C  0.12428138  0.39661578  0.14354413     0.38500
C866        C  0.11985355  0.34627415  0.03836809     0.38500
C867        C  0.06725381  0.39831933  0.05514378     0.36900
C868        C  0.17724542  0.34476995  0.12598364     0.36900
N869        N  0.04503094  0.40793905  0.04036450    -0.37900
N870        N  0.19914104  0.33351316  0.14044719    -0.37900
N871        N  0.11836005  0.33529682  0.01734980    -0.37300
N872        N  0.12529769  0.40623280  0.16490803    -0.37300
C873        C  0.39292397  0.40396359  0.02235405    -0.04000
C874        C  0.36353757  0.39338960  0.00582850    -0.01100
C875        C  0.33634850  0.36827602  0.01455739     0.03900
C876        C  0.33919525  0.35133357  0.03951764    -0.04000
C877        C  0.36827564  0.36217301  0.05612197    -0.01100
C878        C  0.39435134  0.38869341  0.04793127     0.03900
C879        C  0.39100776  0.38760708  0.47588495     0.38500
C880        C  0.37090138  0.34711392  0.08225123     0.38500
C881        C  0.42200205  0.40062877  0.06660533     0.36900
C882        C  0.34025685  0.33192359  0.49187594     0.36900
N883        N  0.44394323  0.40981303  0.08162922    -0.37900
N884        N  0.32734523  0.31246358  0.47656185    -0.37900
N885        N  0.37323402  0.33513712  0.10305458    -0.37300
N886        N  0.39909540  0.39008564  0.45427740    -0.37300
C887        C  0.35037298  0.14896799  0.04220340    -0.04000
C888        C  0.38363914  0.16048438  0.03049406    -0.01100
C889        C  0.40829129  0.13408749  0.01980505     0.03900
C890        C  0.39949592  0.09574137  0.01998611    -0.04000
C891        C  0.36578732  0.08462109  0.03165528    -0.01100
C892        C  0.34247125  0.11080172  0.04350722     0.03900
C893        C  0.39234896  0.19962520  0.02901972     0.38500
C894        C  0.35403349  0.04620094  0.03112932     0.38500
C895        C  0.31095830  0.09817903  0.05830135     0.36900
C896        C  0.44303198  0.14670118  0.00920709     0.36900
N897        N  0.28630228  0.08815087  0.07057069    -0.37900
N898        N  0.47075173  0.15687037  0.00079366    -0.37900
N899        N  0.34445184  0.01565772  0.03079900    -0.37300
N900        N  0.39938789  0.23083341  0.02788793    -0.37300
C901        C  0.89381866  0.09701626  0.35190035    -0.04000
C902        C  0.87304793  0.11788446  0.36962276    -0.01100
C903        C  0.84759191  0.14465280  0.36053189     0.03900
C904        C  0.84321153  0.15154314  0.33355458    -0.04000
C905        C  0.86433099  0.13106522  0.31584115    -0.01100
C906        C  0.88881076  0.10332848  0.32488512     0.03900
C907        C  0.87906156  0.11326308  0.39727326     0.38500
C908        C  0.86050572  0.13794256  0.28825402     0.38500
C909        C  0.90803836  0.08048213  0.30618649     0.36900
C910        C  0.82692044  0.16612946  0.37923015     0.36900
N911        N  0.92326102  0.06218310  0.29130287    -0.37900
N912        N  0.81060363  0.18303930  0.39432289    -0.37900
N913        N  0.85795422  0.14333309  0.26619153    -0.37300
N914        N  0.88382727  0.10994442  0.41936083    -0.37300
C915        C  0.86066544  0.84079061  0.41443308    -0.04000
C916        C  0.88234443  0.86150184  0.43183595    -0.01100
C917        C  0.90665522  0.88894415  0.42239971     0.03900
C918        C  0.91037321  0.89525418  0.39534983    -0.04000
C919        C  0.89055459  0.87273965  0.37791385    -0.01100
C920        C  0.86542645  0.84603354  0.38737393     0.03900
C921        C  0.87857544  0.85561315  0.45952220     0.38500
C922        C  0.89485565  0.87798897  0.35022209     0.38500
C923        C  0.84437334  0.82389446  0.36913482     0.36900
C924        C  0.92791410  0.91074388  0.44070140     0.36900
N925        N  0.82755140  0.80634837  0.35456176    -0.37900
N926        N  0.94470677  0.92813990  0.45537291    -0.37900
N927        N  0.89824185  0.88198788  0.32809608    -0.37300
N928        N  0.87564049  0.85079339  0.48160732    -0.37300
C929        C  0.10029412  0.90640186  0.39801090    -0.04000
C930        C  0.08834009  0.86947596  0.40200785    -0.01100
C931        C  0.11283055  0.84244946  0.41205881     0.03900
C932        C  0.14977108  0.85166721  0.41802337    -0.04000
C933        C  0.16196680  0.88831178  0.41366080    -0.01100
C934        C  0.13722431  0.91570852  0.40434232     0.03900
C935        C  0.05034016  0.85925438  0.39676359     0.38500
C936        C  0.20070676  0.89731350  0.41666683     0.38500
C937        C  0.15036417  0.95331300  0.40078770     0.36900
C938        C  0.09976098  0.80498151  0.41645604     0.36900
N939        N  0.16108409  0.98327403  0.39832100    -0.37900
N940        N  0.08943239  0.77506662  0.41987181    -0.37900
N941        N  0.23166113  0.90459664  0.41841359    -0.37300
N942        N  0.02007456  0.85102497  0.39256209    -0.37300
C943        C  0.10034874  0.10353339  0.35671180    -0.04000
C944        C  0.09328188  0.14199156  0.35521991    -0.01100
C945        C  0.11843344  0.16590354  0.34271162     0.03900
C946        C  0.15097145  0.15154733  0.33155762    -0.04000
C947        C  0.15788042  0.11300047  0.33294772    -0.01100
C948        C  0.13262152  0.08913082  0.34532354     0.03900
C949        C  0.06025698  0.15702570  0.36694539     0.38500
C950        C  0.19055227  0.09766154  0.32091709     0.38500
C951        C  0.13879295  0.04941409  0.34496388     0.36900
C952        C  0.11140208  0.20548151  0.34218037     0.36900
N953        N  0.14347263  0.01772156  0.34440117    -0.49100
N954        N  0.10582836  0.23705190  0.34173784    -0.37900
N955        N  0.21656062  0.08537918  0.31129255    -0.37300
N956        N  0.03396321  0.16899901  0.37637735    -0.37300
C957        C  0.00074561  0.00860553  0.22335886    -0.04000
C958        C  0.02727906  0.02720123  0.23854556    -0.01100
C959        C  0.03100682  0.01881541  0.26511751     0.03900
C960        C  0.00783082  0.99212430  0.27694821    -0.04000
C961        C  0.98257974  0.97225182  0.26161502    -0.01100
C962        C  0.97907756  0.98030550  0.23491686     0.03900
C963        C  0.04998298  0.05596410  0.22712197     0.38500
C964        C  0.95904183  0.94459578  0.27345944     0.38500
C965        C  0.95359251  0.95863638  0.21939253     0.36900
C966        C  0.05854005  0.03825195  0.28043083     0.36900
N967        N  0.93318255  0.94118376  0.20722798    -0.37900
N968        N  0.08034654  0.05392872  0.29259541    -0.37900
N969        N  0.94028045  0.92247391  0.28284658    -0.37300
N970        N  0.06811629  0.07889752  0.21806111    -0.37300
C971        C  0.98822593  0.98863038  0.02633575    -0.04000
C972        C  0.96114188  0.01087410  0.01395511    -0.01100
C973        C  0.96432849  0.02553587  0.48833577     0.03900
C974        C  0.99259370  0.00927613  0.47350949    -0.04000
C975        C  0.01695251  0.98343221  0.48550252    -0.01100
C976        C  0.01871441  0.97608639  0.01203967     0.03900
C977        C  0.92815818  0.02160768  0.02790257     0.38500
C978        C  0.04374026  0.96321741  0.47023843     0.38500
C979        C  0.04662412  0.95324214  0.02454050     0.36900
C980        C  0.93831837  0.05112963  0.47641136     0.36900
N981        N  0.06899593  0.93505278  0.03443284    -0.37900
N982        N  0.91737890  0.07152210  0.46710633    -0.37900
N983        N  0.06508770  0.94688596  0.45822195    -0.37300
N984        N  0.90178558  0.03011867  0.03890227    -0.37300
C985        C  0.88888863  0.09994492  0.10814054    -0.04000
C986        C  0.89458468  0.13846878  0.10970835    -0.01100
C987        C  0.86938485  0.16329440  0.09798809     0.03900
C988        C  0.83759033  0.14976366  0.08518987    -0.04000
C989        C  0.83127968  0.11114856  0.08434306    -0.01100
C990        C  0.85717671  0.08632615  0.09539206     0.03900
C991        C  0.92588295  0.15262331  0.12413958     0.38500
C992        C  0.79865943  0.09683614  0.07145293     0.38500
C993        C  0.85207841  0.04672251  0.09251572     0.36900
C994        C  0.87561998  0.20288692  0.09995182     0.36900
N995        N  0.84814045  0.01516807  0.08991543    -0.37900
N996        N  0.88056537  0.23445810  0.10142988    -0.37900
N997        N  0.77260885  0.08536270  0.06124495    -0.37300
N998        N  0.95040634  0.16415180  0.13602058    -0.37300
C999        C  0.84568296  0.85018384  0.16655485    -0.04000
C1000       C  0.83437536  0.88707082  0.16118477    -0.01100
C1001       C  0.85972482  0.91332215  0.15169994     0.03900
C1002       C  0.89677467  0.90315179  0.14687687    -0.04000
C1003       C  0.90828956  0.86647456  0.15249739    -0.01100
C1004       C  0.88287448  0.84008270  0.16198518     0.03900
C1005       C  0.79642598  0.89851873  0.16516392     0.38500
C1006       C  0.94676270  0.85612791  0.14975694     0.38500
C1007       C  0.89490642  0.80206719  0.16582022     0.36900
C1008       C  0.84723633  0.95103664  0.14701086     0.36900
N1009       N  0.90449286  0.77172617  0.16873981    -0.37900
N1010       N  0.83711496  0.98112719  0.14376357    -0.37900
N1011       N  0.97747256  0.84789854  0.14776610    -0.37300
N1012       N  0.76617982  0.90797201  0.16777760    -0.37300
C1013       C  0.14483436  0.85121364  0.16420325    -0.04000
C1014       C  0.13261613  0.85161259  0.13781123    -0.01100
C1015       C  0.10637115  0.87780808  0.12902570     0.03900
C1016       C  0.09187863  0.90416156  0.14620015    -0.04000
C1017       C  0.10374276  0.90383860  0.17250204    -0.01100
C1018       C  0.13021851  0.87783485  0.18135895     0.03900
C1019       C  0.14720871  0.82563835  0.11904451     0.38500
C1020       C  0.08766386  0.92935952  0.19098647     0.38500
C1021       C  0.14139416  0.87812398  0.20842842     0.36900
C1022       C  0.09507815  0.87813466  0.10195368     0.36900
N1023       N  0.15023195  0.87865586  0.23002332    -0.37900
N1024       N  0.08612740  0.87816682  0.08038012    -0.37900
N1025       N  0.07495419  0.94957303  0.20582135    -0.37300
N1026       N  0.15818288  0.80487269  0.10390390    -0.37300
C1027       C  0.09519967  0.09742753  0.09951160    -0.04000
C1028       C  0.08747958  0.13558968  0.09799036    -0.01100
C1029       C  0.11206426  0.15970201  0.08552240     0.03900
C1030       C  0.14559910  0.14609341  0.07519829    -0.04000
C1031       C  0.15221400  0.10745715  0.07528314    -0.01100
C1032       C  0.12722112  0.08323792  0.08765801     0.03900
C1033       C  0.05438445  0.15029947  0.10979817     0.38500
C1034       C  0.18425577  0.09235907  0.06243093     0.38500
C1035       C  0.13395867  0.04360911  0.08761075     0.36900
C1036       C  0.10215780  0.19857890  0.08284533     0.36900
N1037       N  0.13935368  0.01200853  0.08754432    -0.37900
N1038       N  0.09417219  0.22950551  0.08073552    -0.37900
N1039       N  0.20931444  0.07997991  0.05172059    -0.37300
N1040       N  0.02815388  0.16221070  0.11930019    -0.37300
Zn1041     Zn  0.04440695  0.01488044  0.64517594     1.49700
Zn1042     Zn  0.99537094  0.04697947  0.60094466     1.49400
Zn1043     Zn  0.99868575  0.95805197  0.60901980     1.49100
Zn1044     Zn  0.95613956  0.01267489  0.64852489     1.49500
O1045       O  0.99863680  0.00732730  0.62590543    -1.82800
O1046       O  0.07677870  0.05597825  0.63052587    -0.73400
O1047       O  0.99063654  0.02595539  0.56647981    -0.73200
O1048       O  0.04487728  0.92857960  0.61985590    -0.72800
O1049       O  0.04027295  0.07773482  0.59929347    -0.73400
O1050       O  0.07405139  0.96913282  0.64492461    -0.73000
O1051       O  0.99465169  0.96459838  0.56934747    -0.73600
O1052       O  0.92804860  0.96568510  0.64941602    -0.73000
O1053       O  0.95145933  0.07932577  0.60479513    -0.73800
O1054       O  0.95557354  0.92702222  0.62241100    -0.73200
O1055       O  0.92039673  0.05354269  0.63712388    -0.73600
O1056       O  0.97286421  0.01661181  0.68538635    -0.73500
O1057       O  0.03406542  0.01859472  0.68312165    -0.73300
C1058       C  0.07067893  0.07794848  0.61154094     0.78500
C1059       C  0.99092704  0.99435902  0.55599027     0.79000
C1060       C  0.07115927  0.93706047  0.63530450     0.77900
C1061       C  0.93058562  0.93401046  0.63901934     0.78300
C1062       C  0.92315800  0.07754767  0.61903340     0.79400
C1063       C  0.00451011  0.01602308  0.69617980     0.78500
Zn1064     Zn  0.95494363  0.01365854  0.89586157     1.49700
Zn1065     Zn  0.04478505  0.01880088  0.89693870     1.49400
Zn1066     Zn  0.00143817  0.95895006  0.86045395     1.49100
Zn1067     Zn  0.99886599  0.04774337  0.85012696     1.49500
O1068       O  0.00022689  0.00903737  0.87598515    -1.82800
O1069       O  0.96916248  0.01743592  0.93279005    -0.73400
O1070       O  0.07529683  0.97249509  0.89933114    -0.73200
O1071       O  0.95652636  0.92722045  0.87153632    -0.72800
O1072       O  0.03007413  0.02470534  0.93467691    -0.73400
O1073       O  0.92640216  0.96632732  0.89682909    -0.73000
O1074       O  0.04499104  0.93074284  0.87594437    -0.73600
O1075       O  0.00287535  0.02520509  0.81629173    -0.73000
O1076       O  0.07771280  0.06052720  0.88151088    -0.73800
O1077       O  0.00677772  0.96393741  0.82061605    -0.73200
O1078       O  0.04104215  0.08248631  0.85049576    -0.73600
O1079       O  0.95309732  0.07720838  0.85011721    -0.73500
O1080       O  0.92064689  0.05516908  0.88312428    -0.73300
C1081       C  0.99903555  0.01962648  0.94570521     0.78500
C1082       C  0.07121582  0.93949449  0.89132750     0.79000
C1083       C  0.93044821  0.93418569  0.88737346     0.77900
C1084       C  0.00694760  0.99335320  0.80661825     0.78300
C1085       C  0.07138726  0.08304703  0.86274383     0.79400
C1086       C  0.92443274  0.07733473  0.86399467     0.78500
Zn1087     Zn  0.24853011  0.20262725  0.54162778     1.49700
Zn1088     Zn  0.21524712  0.25177893  0.58448766     1.49400
Zn1089     Zn  0.30283266  0.25301740  0.57689802     1.49100
Zn1090     Zn  0.24492953  0.29179195  0.53643016     1.49500
O1091       O  0.25402249  0.24972591  0.55966501    -1.82800
O1092       O  0.20478964  0.17155968  0.55448618    -0.73400
O1093       O  0.23508171  0.24856153  0.61881510    -0.73200
O1094       O  0.33525597  0.20909918  0.56533398    -0.72800
O1095       O  0.18067849  0.21023523  0.58285443    -0.73400
O1096       O  0.29504154  0.17287894  0.54483825    -0.73000
O1097       O  0.29607098  0.25216429  0.61707159    -0.73600
O1098       O  0.29033488  0.32198259  0.53417306    -0.73000
O1099       O  0.18824592  0.29874416  0.58484147    -0.73800
O1100       O  0.32929305  0.30002346  0.56406450    -0.73200
O1101       O  0.20511351  0.32762556  0.54888413    -0.73600
O1102       O  0.23766497  0.27421645  0.50002566    -0.73500
O1103       O  0.24540362  0.21304454  0.50340966    -0.73300
C1104       C  0.18028041  0.17942633  0.57125574     0.78500
C1105       C  0.26608322  0.24931861  0.62995298     0.79000
C1106       C  0.32756830  0.17948338  0.55295339     0.77900
C1107       C  0.32112100  0.32306663  0.54596738     0.78300
C1108       C  0.18673750  0.32650655  0.56984908     0.79400
C1109       C  0.23710130  0.24450859  0.99010957     0.78500
Zn1110     Zn  0.26126749  0.20331563  0.83035441     1.49700
Zn1111     Zn  0.20819968  0.25261930  0.79307365     1.49400
Zn1112     Zn  0.26429005  0.29304802  0.83314893     1.49100
Zn1113     Zn  0.29710610  0.24891650  0.78692327     1.49500
O1114       O  0.25676808  0.24970574  0.81098651    -1.82800
O1115       O  0.21348271  0.17687624  0.83004948    -0.73400
O1116       O  0.17898932  0.29783971  0.80614136    -0.73200
O1117       O  0.26973351  0.27596209  0.87008497    -0.72800
O1118       O  0.17590511  0.20849654  0.80392794    -0.73400
O1119       O  0.26779210  0.21425211  0.86794773    -0.73000
O1120       O  0.21758751  0.32369970  0.83433503    -0.73600
O1121       O  0.32945048  0.29256406  0.78901588    -0.73000
O1122       O  0.21636447  0.25389335  0.75320559    -0.73800
O1123       O  0.30747170  0.32586977  0.82122824    -0.73200
O1124       O  0.27762260  0.25148126  0.75222440    -0.73600
O1125       O  0.32650976  0.20253495  0.78663035    -0.73500
O1126       O  0.29962101  0.16737211  0.81621201    -0.73300
C1127       C  0.18203259  0.18165973  0.81963393     0.78500
C1128       C  0.18598785  0.32210413  0.82346100     0.79000
C1129       C  0.26825005  0.24418364  0.88085242     0.77900
C1130       C  0.33036245  0.32154148  0.80274326     0.78300
C1131       C  0.24683643  0.25336363  0.74075792     0.79400
C1132       C  0.32318522  0.17170925  0.79823686     0.78500
Zn1133     Zn  0.23252228  0.70860995  0.70953117     1.49700
Zn1134     Zn  0.20455754  0.75253952  0.66191190     1.49400
Zn1135     Zn  0.23899471  0.79842335  0.70709226     1.49100
Zn1136     Zn  0.29250314  0.74906975  0.67187326     1.49500
O1137       O  0.24298919  0.75214375  0.68777902    -1.82800
O1138       O  0.19085195  0.67571816  0.69546615    -0.73400
O1139       O  0.17678325  0.79903503  0.66038489    -0.73200
O1140       O  0.23386013  0.78556079  0.74465775    -0.72800
O1141       O  0.16930929  0.71063477  0.66328394    -0.73400
O1142       O  0.22645367  0.72445208  0.74665118    -0.73000
O1143       O  0.19877751  0.83339561  0.69244458    -0.73600
O1144       O  0.32566449  0.79251097  0.68381384    -0.73000
O1145       O  0.22663721  0.74781248  0.62812744    -0.73800
O1146       O  0.28745882  0.82540902  0.70810177    -0.73200
O1147       O  0.28764878  0.74528510  0.63183074    -0.73600
O1148       O  0.31864057  0.70357115  0.68651829    -0.73500
O1149       O  0.27741574  0.67683220  0.71219388    -0.73300
C1150       C  0.16853494  0.68107704  0.67658228     0.78500
C1151       C  0.17727172  0.82902398  0.67296091     0.79000
C1152       C  0.23137947  0.75559576  0.75766633     0.77900
C1153       C  0.31956441  0.81943541  0.69924096     0.78300
C1154       C  0.25814517  0.74467759  0.61805179     0.79400
C1155       C  0.30971127  0.67859900  0.70291833     0.78500
Zn1156     Zn  0.20615023  0.75407926  0.91206200     1.49700
Zn1157     Zn  0.23852967  0.79769012  0.95816917     1.49400
Zn1158     Zn  0.23896302  0.70937776  0.95843612     1.49100
Zn1159     Zn  0.29493910  0.75330896  0.92131266     1.49500
O1160       O  0.24547330  0.75370579  0.93735879    -1.82800
O1161       O  0.16962201  0.79524985  0.91563175    -0.73400
O1162       O  0.23756143  0.78225988  0.99534162    -0.73200
O1163       O  0.20226873  0.67340003  0.94273435    -0.72800
O1164       O  0.19498849  0.82968579  0.94646983    -0.73400
O1165       O  0.18058112  0.70590230  0.90934973    -0.73000
O1166       O  0.22946309  0.72145982  0.99571112    -0.73600
O1167       O  0.32441245  0.70662567  0.93217922    -0.73000
O1168       O  0.28317003  0.82921726  0.95801627    -0.73800
O1169       O  0.28640234  0.68225721  0.96083252    -0.73200
O1170       O  0.32485032  0.79655418  0.93634343    -0.73600
O1171       O  0.28884025  0.75720774  0.88132544    -0.73500
O1172       O  0.22764190  0.76098861  0.87805450    -0.73300
C1173       C  0.17041469  0.82459334  0.92904939     0.78500
C1174       C  0.23729861  0.74627736  0.50701060     0.79000
C1175       C  0.18213546  0.67614545  0.92246504     0.77900
C1176       C  0.31744746  0.68245364  0.94966061     0.78300
C1177       C  0.31605048  0.82400836  0.95061016     0.79400
C1178       C  0.25924396  0.76078268  0.86781327     0.78500
Zn1179     Zn  0.54614084  0.99029443  0.52051149     1.49700
Zn1180     Zn  0.49670418  0.04261595  0.98249510     1.49400
Zn1181     Zn  0.49635987  0.95366362  0.97695484     1.49100
Zn1182     Zn  0.45754534  0.98845764  0.52172640     1.49500
O1183       O  0.49768862  0.99414337  0.00089891    -1.82800
O1184       O  0.57082003  0.03886721  0.52185084    -0.73400
O1185       O  0.49794315  0.03333510  0.94248108    -0.73200
O1186       O  0.54226930  0.92514653  0.97585760    -0.72800
O1187       O  0.54122773  0.07319724  0.99492159    -0.73400
O1188       O  0.58324273  0.95345381  0.50503698    -0.73000
O1189       O  0.49183114  0.97197816  0.94177196    -0.73600
O1190       O  0.42387391  0.94707557  0.50893770    -0.73000
O1191       O  0.45102898  0.07348054  0.99388488    -0.73800
O1192       O  0.45489135  0.91932346  0.98142219    -0.73200
O1193       O  0.42889970  0.03552765  0.52373189    -0.73600
O1194       O  0.47283162  0.98147986  0.55857165    -0.73500
O1195       O  0.53423751  0.98185969  0.55826541    -0.73300
C1196       C  0.56612935  0.07062694  0.51171706     0.78500
C1197       C  0.49470670  0.00270253  0.93018530     0.79000
C1198       C  0.57228459  0.92495681  0.98846730     0.77900
C1199       C  0.42539267  0.92166510  0.99426771     0.78300
C1200       C  0.42887419  0.06717820  0.51290556     0.79400
C1201       C  0.50370784  0.98194340  0.57039261     0.78500
Zn1202     Zn  0.45926951  0.99932378  0.72999032     1.49700
Zn1203     Zn  0.50463737  0.94194835  0.76674871     1.49400
Zn1204     Zn  0.54882910  0.00287824  0.73161966     1.49100
Zn1205     Zn  0.50275003  0.03056408  0.77737838     1.49500
O1206       O  0.50381665  0.99260683  0.75131959    -1.82800
O1207       O  0.43083867  0.95189684  0.72792789    -0.73400
O1208       O  0.55084174  0.91445914  0.75325754    -0.73200
O1209       O  0.53574252  0.00818556  0.69397989    -0.72800
O1210       O  0.45996769  0.91127018  0.75334438    -0.73400
O1211       O  0.47433074  0.00626036  0.69279220    -0.73000
O1212       O  0.58077140  0.95810547  0.73122153    -0.73600
O1213       O  0.54516904  0.06469068  0.77767877    -0.73000
O1214       O  0.50405965  0.94636314  0.80722174    -0.73800
O1215       O  0.58033569  0.04573680  0.74558336    -0.73200
O1216       O  0.50340935  0.00775277  0.81137655    -0.73600
O1217       O  0.45747500  0.06041131  0.77689667    -0.73500
O1218       O  0.42412228  0.03951057  0.74408257    -0.73300
C1219       C  0.43410318  0.91940668  0.73727367     0.78500
C1220       C  0.57783557  0.92488509  0.73911031     0.79000
C1221       C  0.50544548  0.00671615  0.68141911     0.77900
C1222       C  0.57466342  0.06705981  0.76480852     0.78300
C1223       C  0.50355850  0.97564671  0.82119502     0.79400
C1224       C  0.42796432  0.06073034  0.76367471     0.78500
Zn1225     Zn  0.80785016  0.75046908  0.70474992     1.49700
Zn1226     Zn  0.74980456  0.79356361  0.66587386     1.49400
Zn1227     Zn  0.75144825  0.70415646  0.66807132     1.49100
Zn1228     Zn  0.72007006  0.75092526  0.71295224     1.49500
O1229       O  0.75837389  0.74980443  0.68778446    -1.82800
O1230       O  0.83644438  0.79589457  0.69175403    -0.73400
O1231       O  0.74542785  0.77858168  0.62839212    -0.73200
O1232       O  0.79715140  0.67318628  0.66951839    -0.72800
O1233       O  0.79572777  0.82323646  0.66562695    -0.73400
O1234       O  0.83817581  0.70492297  0.69279964    -0.73000
O1235       O  0.75118325  0.71747773  0.63047506    -0.73600
O1236       O  0.69001476  0.70635409  0.71317647    -0.73000
O1237       O  0.70779521  0.82790833  0.67830806    -0.73800
O1238       O  0.70616130  0.67322540  0.67922414    -0.73200
O1239       O  0.68622757  0.79383332  0.71061752    -0.73600
O1240       O  0.74094899  0.75468752  0.74710874    -0.73500
O1241       O  0.80204861  0.75379020  0.74490633    -0.73300
C1242       C  0.82766781  0.82174108  0.67583480     0.78500
C1243       C  0.75027038  0.74743425  0.61739687     0.79000
C1244       C  0.82973804  0.67763497  0.67817974     0.77900
C1245       C  0.68546443  0.67842800  0.69884103     0.78300
C1246       C  0.68523411  0.82296371  0.69689679     0.79400
C1247       C  0.77218972  0.75613413  0.75796198     0.78500
Zn1248     Zn  0.71736079  0.75089736  0.96403959     1.49700
Zn1249     Zn  0.74688603  0.79696283  0.91746424     1.49400
Zn1250     Zn  0.80465386  0.75064882  0.95233875     1.49100
Zn1251     Zn  0.74351393  0.70651001  0.91681831     1.49500
O1252       O  0.75397840  0.75116645  0.93745609    -1.82800
O1253       O  0.68745939  0.79614210  0.96492575    -0.73400
O1254       O  0.79281699  0.82775901  0.91666834    -0.73200
O1255       O  0.80222000  0.74736485  0.99248979    -0.72800
O1256       O  0.70420612  0.82922559  0.93059345    -0.73400
O1257       O  0.74343098  0.74647890  0.49800684    -0.73000
O1258       O  0.83454429  0.79627175  0.93961731    -0.73600
O1259       O  0.78892944  0.67506402  0.91591260    -0.73000
O1260       O  0.74314330  0.78333575  0.88013929    -0.73800
O1261       O  0.83173908  0.70520373  0.93832555    -0.73200
O1262       O  0.73982735  0.72170079  0.87907874    -0.73600
O1263       O  0.70012384  0.67378522  0.93070022    -0.73500
O1264       O  0.68254780  0.70892881  0.96302864    -0.73300
C1265       C  0.68416319  0.82452401  0.95059462     0.78500
C1266       C  0.82565980  0.82361257  0.92493907     0.79000
C1267       C  0.77567323  0.74425696  0.50728335     0.77900
C1268       C  0.82202502  0.67819647  0.92390759     0.78300
C1269       C  0.74317799  0.75297690  0.86770347     0.79400
C1270       C  0.67905871  0.67944560  0.95012765     0.78500
Zn1271     Zn  0.73291397  0.20620214  0.58386919     1.49700
Zn1272     Zn  0.73844871  0.29557805  0.58313283     1.49400
Zn1273     Zn  0.79535922  0.24834118  0.54929275     1.49100
Zn1274     Zn  0.70948344  0.25250119  0.53585358     1.49500
O1275       O  0.74490819  0.25040273  0.56325788    -1.82800
O1276       O  0.72590197  0.22081532  0.62141393    -0.73400
O1277       O  0.78432772  0.32533225  0.58369986    -0.73200
O1278       O  0.82146723  0.20417104  0.56547043    -0.72800
O1279       O  0.73482252  0.28163483  0.62015177    -0.73400
O1280       O  0.77762760  0.17360732  0.58668657    -0.73000
O1281       O  0.82543372  0.29313821  0.56132113    -0.73600
O1282       O  0.72597197  0.25329683  0.00316224    -0.73000
O1283       O  0.69663894  0.32895396  0.57023791    -0.73800
O1284       O  0.79417486  0.24397936  0.50932500    -0.73200
O1285       O  0.68324105  0.29963891  0.53378071    -0.73600
O1286       O  0.67212118  0.21304058  0.53669845    -0.73500
O1287       O  0.69025952  0.17563400  0.56824318    -0.73300
C1288       C  0.73157256  0.25157208  0.63282866     0.78500
C1289       C  0.81695609  0.32060685  0.57561567     0.79000
C1290       C  0.81107501  0.17743590  0.57992394     0.77900
C1291       C  0.75805732  0.25324799  0.99371829     0.78300
C1292       C  0.67883463  0.32671468  0.54891411     0.79400
C1293       C  0.66884151  0.18292301  0.54909213     0.78500
Zn1294     Zn  0.79762164  0.25318899  0.79570020     1.49700
Zn1295     Zn  0.74067156  0.20964443  0.83319602     1.49400
Zn1296     Zn  0.74336954  0.29945099  0.83244558     1.49100
Zn1297     Zn  0.70863265  0.25512305  0.78717722     1.49500
O1298       O  0.74835508  0.25432389  0.81218248    -1.82800
O1299       O  0.82624510  0.20747659  0.80780310    -0.73400
O1300       O  0.73572314  0.22330739  0.87084430    -0.73200
O1301       O  0.79014966  0.32882531  0.83214655    -0.72800
O1302       O  0.78628172  0.17939001  0.83380676    -0.73400
O1303       O  0.82961747  0.29612641  0.80889497    -0.73000
O1304       O  0.74082127  0.28471053  0.86992109    -0.73600
O1305       O  0.67461892  0.29835109  0.78981684    -0.73000
O1306       O  0.70053173  0.17539301  0.81904003    -0.73800
O1307       O  0.70066290  0.33309126  0.82016825    -0.73200
O1308       O  0.67958570  0.20870234  0.78597837    -0.73600
O1309       O  0.73003677  0.25865560  0.75295120    -0.73500
O1310       O  0.79125763  0.25432614  0.75584516    -0.73300
C1311       C  0.81797897  0.18169695  0.82372542     0.78500
C1312       C  0.73958429  0.25419892  0.88240423     0.79000
C1313       C  0.82262207  0.32332722  0.82382470     0.77900
C1314       C  0.67589436  0.32805184  0.80282101     0.78300
C1315       C  0.67962187  0.17900560  0.79919433     0.79400
C1316       C  0.76148179  0.25732242  0.74252358     0.78500
Zn1317     Zn  0.44936684  0.49580180  0.98115148     1.49700
Zn1318     Zn  0.50012543  0.46595220  0.52716556     1.49400
Zn1319     Zn  0.53890629  0.49343138  0.98002356     1.49100
Zn1320     Zn  0.50422275  0.55423829  0.51934185     1.49500
O1321       O  0.50016300  0.50545411  0.50221124    -1.82800
O1322       O  0.41550563  0.45494470  0.99567756    -0.73400
O1323       O  0.54453066  0.43534558  0.52635652    -0.73200
O1324       O  0.52299590  0.48941600  0.94318148    -0.72800
O1325       O  0.45646293  0.43365887  0.52591960    -0.73400
O1326       O  0.46159485  0.48999259  0.94340483    -0.73000
O1327       O  0.57011433  0.44945107  0.99309521    -0.73600
O1328       O  0.55064361  0.58153058  0.50658031    -0.73000
O1329       O  0.50058143  0.48569901  0.56172505    -0.73800
O1330       O  0.57143733  0.53810259  0.97815947    -0.73200
O1331       O  0.50439487  0.54712003  0.55932929    -0.73600
O1332       O  0.46135343  0.58726756  0.50726123    -0.73500
O1333       O  0.42072454  0.54268079  0.98085989    -0.73300
C1334       C  0.42601041  0.43516401  0.51380945     0.78500
C1335       C  0.57315702  0.43472201  0.51251736     0.79000
C1336       C  0.49213462  0.49075833  0.93132892     0.77900
C1337       C  0.56924458  0.57108422  0.98650013     0.78300
C1338       C  0.50277484  0.51694328  0.57243313     0.79400
C1339       C  0.42521270  0.57530629  0.98938989     0.78500
Zn1340     Zn  0.49705414  0.55007019  0.72747152     1.49700
Zn1341     Zn  0.54463890  0.51824293  0.77265360     1.49400
Zn1342     Zn  0.45557384  0.51581626  0.77325864     1.49100
Zn1343     Zn  0.50054399  0.46066914  0.73610615     1.49500
O1344       O  0.49963056  0.51026113  0.75238756    -1.82800
O1345       O  0.54189840  0.58105381  0.72618849    -0.73400
O1346       O  0.53147602  0.52775003  0.80994795    -0.73200
O1347       O  0.41936627  0.55530170  0.76040279    -0.72800
O1348       O  0.57861793  0.55680733  0.75643865    -0.73400
O1349       O  0.45249658  0.58185239  0.72958664    -0.73000
O1350       O  0.47027241  0.52261872  0.80989262    -0.73600
O1351       O  0.45546300  0.43021324  0.74776022    -0.73000
O1352       O  0.57396460  0.47154811  0.77513892    -0.73800
O1353       O  0.42869168  0.46841140  0.77503384    -0.73200
O1354       O  0.54549978  0.43090886  0.74981956    -0.73600
O1355       O  0.50106640  0.46748347  0.69612254    -0.73500
O1356       O  0.49474763  0.52877076  0.69327926    -0.73300
C1357       C  0.57277746  0.57936424  0.73776624     0.78500
C1358       C  0.50088517  0.52504851  0.82187291     0.79000
C1359       C  0.42305107  0.57958139  0.74260513     0.77900
C1360       C  0.43055977  0.43681487  0.76456203     0.78300
C1361       C  0.57128897  0.43920087  0.76580362     0.79400
C1362       C  0.49736040  0.49733918  0.68279452     0.78500
Zn1363     Zn  0.00030200  0.54579660  0.60636932     1.49700
Zn1364     Zn  0.00218558  0.45686794  0.59851077     1.49400
Zn1365     Zn  0.04730926  0.48959912  0.64319017     1.49100
Zn1366     Zn  0.95771223  0.48878144  0.64390458     1.49500
O1367       O  0.00177412  0.49636270  0.62316858    -1.82800
O1368       O  0.00036179  0.53942132  0.56620728    -0.73400
O1369       O  0.04554907  0.42441828  0.59977142    -0.73200
O1370       O  0.07380748  0.53752745  0.64526537    -0.72800
O1371       O  0.00404108  0.47793528  0.56385230    -0.73400
O1372       O  0.04414477  0.57668386  0.61903350    -0.73000
O1373       O  0.08342317  0.45300067  0.62648521    -0.73600
O1374       O  0.97380654  0.48314318  0.68070602    -0.73000
O1375       O  0.95794680  0.42576951  0.59862125    -0.73800
O1376       O  0.03511809  0.48009796  0.68078860    -0.73200
O1377       O  0.92319365  0.44781358  0.63000193    -0.73600
O1378       O  0.92908130  0.53589913  0.64653927    -0.73500
O1379       O  0.95622244  0.57581485  0.61994617    -0.73300
C1380       C  0.00286942  0.50944739  0.55310110     0.78500
C1381       C  0.07753838  0.42860231  0.60914979     0.79000
C1382       C  0.06979484  0.56955833  0.63540382     0.77900
C1383       C  0.00454308  0.48250427  0.69278258     0.78300
C1384       C  0.92801245  0.42564648  0.61107109     0.79400
C1385       C  0.93200291  0.56830288  0.63707646     0.78500
Zn1386     Zn  0.95704752  0.50722523  0.85231561     1.49700
Zn1387     Zn  0.00476752  0.45041725  0.88901058     1.49400
Zn1388     Zn  0.04700247  0.50647666  0.85066670     1.49100
Zn1389     Zn  0.00283018  0.53976654  0.89620408     1.49500
O1390       O  0.00291995  0.49977400  0.87184224    -1.82800
O1391       O  0.92993320  0.45883946  0.85030859    -0.73400
O1392       O  0.05041742  0.42040864  0.87663740    -0.73200
O1393       O  0.03092318  0.51530346  0.81386274    -0.72800
O1394       O  0.96040948  0.41973273  0.87635108    -0.73400
O1395       O  0.96963999  0.51758645  0.81529392    -0.73000
O1396       O  0.07525260  0.45898219  0.84805028    -0.73600
O1397       O  0.04845759  0.56825948  0.89659729    -0.73000
O1398       O  0.00365725  0.45785903  0.92916068    -0.73800
O1399       O  0.08305633  0.54496614  0.86560784    -0.73200
O1400       O  0.99969784  0.51936703  0.93066714    -0.73600
O1401       O  0.96092314  0.57455001  0.89461509    -0.73500
O1402       O  0.92263749  0.54756188  0.86717019    -0.73300
C1403       C  0.93433736  0.42679271  0.86025072     0.78500
C1404       C  0.07419303  0.42743268  0.85903520     0.79000
C1405       C  0.99958143  0.51688287  0.80254397     0.77900
C1406       C  0.07883064  0.56681190  0.88475120     0.78300
C1407       C  0.00063672  0.48819090  0.94182652     0.79400
C1408       C  0.92964928  0.57284973  0.88369123     0.78500
C1409       C  0.00430488  0.48973431  0.72126334    -0.04000
C1410       C  0.97401284  0.47824571  0.73645379    -0.01100
C1411       C  0.97047168  0.49022859  0.76228032     0.03900
C1412       C  0.99809333  0.51267402  0.77381033    -0.04000
C1413       C  0.02742776  0.52557526  0.75836969    -0.01100
C1414       C  0.03069592  0.51412533  0.73236496     0.03900
C1415       C  0.94632059  0.45357789  0.72573324     0.38500
C1416       C  0.05343097  0.55219251  0.76889243     0.38500
C1417       C  0.06059888  0.52911542  0.71696715     0.36900
C1418       C  0.93813503  0.47892417  0.77677087     0.36900
N1419       N  0.08461037  0.54129896  0.70499061    -0.37900
N1420       N  0.91204654  0.47019528  0.78805106    -0.37900
N1421       N  0.07396651  0.57360276  0.77722779    -0.37300
N1422       N  0.92401797  0.43409918  0.71732012    -0.37300
C1423       C  0.99868132  0.48970548  0.97040962    -0.04000
C1424       C  0.96793173  0.50737691  0.98185871    -0.01100
C1425       C  0.97052811  0.51343005  0.51038495     0.03900
C1426       C  0.00365684  0.50893247  0.52445746    -0.04000
C1427       C  0.03491331  0.49390903  0.51201624    -0.01100
C1428       C  0.03085831  0.48368555  0.98530466     0.03900
C1429       C  0.93502792  0.51471512  0.96646877     0.38500
C1430       C  0.06971967  0.49132834  0.52595013     0.38500
C1431       C  0.06298993  0.46696216  0.97347334     0.36900
C1432       C  0.93818178  0.52813995  0.52317357     0.36900
N1433       N  0.08854498  0.45354051  0.96399336    -0.37900
N1434       N  0.91246016  0.53989151  0.53346734    -0.37900
N1435       N  0.09755315  0.48948184  0.53698776    -0.37300
N1436       N  0.90886355  0.52064084  0.95415646    -0.37300
C1437       C  0.49242779  0.49764204  0.90292254    -0.04000
C1438       C  0.46909548  0.52520974  0.89189341    -0.01100
C1439       C  0.47268930  0.53531553  0.86559685     0.03900
C1440       C  0.50068096  0.51932311  0.85034518    -0.04000
C1441       C  0.52441287  0.49229109  0.86151269    -0.01100
C1442       C  0.51971576  0.48096831  0.88743580     0.03900
C1443       C  0.44228113  0.54459022  0.90766504     0.38500
C1444       C  0.55270287  0.47445098  0.84612507     0.38500
C1445       C  0.54228558  0.45108081  0.89789145     0.36900
C1446       C  0.44754180  0.56239724  0.85428724     0.36900
N1447       N  0.56016258  0.42713397  0.90614469    -0.37900
N1448       N  0.42724420  0.58368185  0.84523397    -0.37900
N1449       N  0.57544590  0.46013367  0.83411777    -0.37300
N1450       N  0.42089866  0.56032888  0.92003583    -0.37300
C1451       C  0.49693937  0.49779230  0.65417708    -0.04000
C1452       C  0.52865785  0.48723857  0.64041100    -0.01100
C1453       C  0.53169128  0.49615265  0.61387093     0.03900
C1454       C  0.50317940  0.51598998  0.60099651    -0.04000
C1455       C  0.47126933  0.52606187  0.61466936    -0.01100
C1456       C  0.46811952  0.51699728  0.64115208     0.03900
C1457       C  0.55874621  0.46845741  0.65373865     0.38500
C1458       C  0.44093385  0.54419327  0.60120984     0.38500
C1459       C  0.43496622  0.52724742  0.65507418     0.36900
C1460       C  0.56412919  0.48460173  0.59964105     0.36900
N1461       N  0.40859632  0.53541577  0.66621701    -0.37900
N1462       N  0.58988365  0.47526739  0.58824623    -0.37900
N1463       N  0.41660397  0.55847778  0.59050377    -0.37300
N1464       N  0.58275572  0.45348851  0.66436601    -0.37300
C1465       C  0.85296528  0.34811397  0.83339733    -0.04000
C1466       C  0.88279762  0.35839094  0.81731262    -0.01100
C1467       C  0.91065295  0.38229975  0.82676417     0.03900
C1468       C  0.90850107  0.39709482  0.85203566    -0.04000
C1469       C  0.87991218  0.38568124  0.86849862    -0.01100
C1470       C  0.85262769  0.36094731  0.85946560     0.03900
C1471       C  0.88448272  0.34543552  0.79077835     0.38500
C1472       C  0.87834138  0.39985780  0.89474257     0.38500
C1473       C  0.82493338  0.34795775  0.87754511     0.36900
C1474       C  0.94217116  0.39103278  0.81068050     0.36900
N1475       N  0.80302321  0.33764364  0.89209263    -0.37900
N1476       N  0.96754001  0.39759785  0.79797399    -0.37900
N1477       N  0.87715455  0.41116421  0.91567259    -0.37300
N1478       N  0.88590334  0.33517043  0.76958731    -0.37300
C1479       C  0.64898421  0.35782736  0.79598115    -0.04000
C1480       C  0.61074152  0.35048371  0.79597276    -0.01100
C1481       C  0.58545651  0.37692089  0.78601530     0.03900
C1482       C  0.59817301  0.41053723  0.77510586    -0.04000
C1483       C  0.63643912  0.41829780  0.77586803    -0.01100
C1484       C  0.66163902  0.39215150  0.78631006     0.03900
C1485       C  0.59729286  0.31605003  0.80697610     0.38500
C1486       C  0.65015690  0.45308244  0.76563241     0.38500
C1487       C  0.70084569  0.40007968  0.78622460     0.36900
C1488       C  0.54623933  0.37061396  0.78884932     0.36900
N1489       N  0.73212134  0.40635292  0.78621715    -0.37900
N1490       N  0.51501896  0.36574816  0.79170826    -0.37900
N1491       N  0.66130249  0.48086498  0.75766364    -0.37300
N1492       N  0.58654777  0.28864047  0.81582412    -0.37300
C1493       C  0.75993298  0.25700083  0.96514017    -0.04000
C1494       C  0.73846744  0.28494541  0.95295010    -0.01100
C1495       C  0.73118585  0.28367350  0.92613640     0.03900
C1496       C  0.74585316  0.25471393  0.91099574    -0.04000
C1497       C  0.76972706  0.22828685  0.92295311    -0.01100
C1498       C  0.77652128  0.22937358  0.94995861     0.03900
C1499       C  0.72334657  0.31503083  0.96820803     0.38500
C1500       C  0.78829065  0.20045256  0.90753529     0.38500
C1501       C  0.79954399  0.20133035  0.96221605     0.36900
C1502       C  0.70760339  0.31176428  0.91442101     0.36900
N1503       N  0.81803115  0.17901450  0.97194442    -0.37900
N1504       N  0.68892828  0.33428335  0.90511529    -0.37900
N1505       N  0.80326647  0.17823751  0.89537334    -0.37300
N1506       N  0.71125596  0.33893235  0.98038221    -0.37300
C1507       C  0.76117198  0.25854786  0.71394964    -0.04000
C1508       C  0.77012163  0.22658647  0.69980513    -0.01100
C1509       C  0.75961726  0.22372976  0.67349220     0.03900
C1510       C  0.73886469  0.25251171  0.66131883    -0.04000
C1511       C  0.73041652  0.28476546  0.67568627    -0.01100
C1512       C  0.74239066  0.28806078  0.70157552     0.03900
C1513       C  0.78873494  0.19589835  0.71266830     0.38500
C1514       C  0.70836825  0.31433891  0.66427908     0.38500
C1515       C  0.73483770  0.32181480  0.71584213     0.36900
C1516       C  0.77117883  0.19136292  0.65905541     0.36900
N1517       N  0.72902173  0.34870226  0.72723945    -0.37900
N1518       N  0.78056001  0.16546419  0.64771234    -0.37900
N1519       N  0.69078743  0.33798397  0.65529731    -0.37300
N1520       N  0.80347507  0.17136947  0.72292363    -0.37300
C1521       C  0.84568032  0.34708613  0.58454305    -0.04000
C1522       C  0.84890905  0.35553756  0.61128535    -0.01100
C1523       C  0.87521408  0.38150672  0.62005516     0.03900
C1524       C  0.89853665  0.39956306  0.60218768    -0.04000
C1525       C  0.89471660  0.39140852  0.57530438    -0.01100
C1526       C  0.86907674  0.36474433  0.56671252     0.03900
C1527       C  0.82616377  0.33630517  0.63009493     0.38500
C1528       C  0.91603290  0.41142805  0.55603916     0.38500
C1529       C  0.86632153  0.35611988  0.53933599     0.36900
C1530       C  0.87881555  0.38862008  0.64760532     0.36900
N1531       N  0.86450441  0.34921883  0.51749203    -0.37900
N1532       N  0.88148158  0.39418532  0.66960979    -0.37900
N1533       N  0.93287884  0.42732651  0.54060317    -0.37300
N1534       N  0.80814905  0.32098468  0.64514439    -0.37300
C1535       C  0.60184555  0.40769196  0.51983638    -0.04000
C1536       C  0.63548717  0.41953778  0.53093180    -0.01100
C1537       C  0.66065314  0.39326675  0.54111949     0.03900
C1538       C  0.65164202  0.35522371  0.54089338    -0.04000
C1539       C  0.61733395  0.34370574  0.53047890    -0.01100
C1540       C  0.59279906  0.36980097  0.51977734     0.03900
C1541       C  0.64520457  0.44423699  0.01066863     0.38500
C1542       C  0.60664151  0.30495962  0.53132785     0.38500
C1543       C  0.55778844  0.35769497  0.50894681     0.36900
C1544       C  0.69605577  0.40534475  0.55118142     0.36900
N1545       N  0.52982362  0.34820446  0.50037679    -0.37900
N1546       N  0.72433665  0.41498165  0.55914124    -0.37900
N1547       N  0.59812354  0.27410487  0.53196932    -0.37300
N1548       N  0.65596031  0.47124076  0.00122837    -0.37300
C1549       C  0.85000862  0.65074438  0.91454377    -0.04000
C1550       C  0.88585779  0.66258122  0.90752416    -0.01100
C1551       C  0.91084287  0.63766069  0.89592231     0.03900
C1552       C  0.90106127  0.60016461  0.89193736    -0.04000
C1553       C  0.86557692  0.58811799  0.89929591    -0.01100
C1554       C  0.84003483  0.61330113  0.91007114     0.03900
C1555       C  0.89708332  0.70071610  0.91147572     0.38500
C1556       C  0.85593576  0.54926759  0.89723109     0.38500
C1557       C  0.80366989  0.60006598  0.91714266     0.36900
C1558       C  0.94661900  0.65104464  0.88756540     0.36900
N1559       N  0.77460665  0.58954699  0.92257088    -0.37900
N1560       N  0.97505928  0.66180050  0.88089283    -0.37900
N1561       N  0.84834777  0.51821861  0.89580655    -0.37300
N1562       N  0.90623262  0.73104034  0.91476283    -0.37300
C1563       C  0.65065660  0.65144515  0.95913472    -0.04000
C1564       C  0.63481043  0.62537718  0.94190734    -0.01100
C1565       C  0.60788545  0.59981981  0.95072560     0.03900
C1566       C  0.59709539  0.59882692  0.97716479    -0.04000
C1567       C  0.61297688  0.62440395  0.99442263    -0.01100
C1568       C  0.63885089  0.65081884  0.98556756     0.03900
C1569       C  0.64505172  0.62535235  0.91476168     0.38500
C1570       C  0.55356087  0.64974887  0.47907963     0.38500
C1571       C  0.65298453  0.67716246  0.00430939     0.36900
C1572       C  0.59008276  0.57557710  0.93209927     0.36900
N1573       N  0.66343195  0.69833381  0.01942245    -0.37900
N1574       N  0.57580961  0.55644850  0.91717218    -0.37900
N1575       N  0.52324137  0.65892345  0.48183803    -0.37300
N1576       N  0.65315369  0.62511810  0.89309584    -0.37300
C1577       C  0.77133397  0.76028227  0.78655988    -0.04000
C1578       C  0.74511442  0.78489013  0.79739934    -0.01100
C1579       C  0.73497815  0.78171923  0.82360331     0.03900
C1580       C  0.75143739  0.75437335  0.83952323    -0.04000
C1581       C  0.77977345  0.73168220  0.82917840    -0.01100
C1582       C  0.78970575  0.73475015  0.80281086     0.03900
C1583       C  0.72778190  0.81329559  0.78142134     0.38500
C1584       C  0.79949969  0.70556393  0.84564521     0.38500
C1585       C  0.81794534  0.71077751  0.79224316     0.36900
C1586       C  0.70654938  0.80587167  0.83385350     0.36900
N1587       N  0.84063796  0.69182697  0.78382673    -0.37900
N1588       N  0.68389440  0.82517020  0.84194320    -0.37900
N1589       N  0.81547520  0.68457123  0.85850998    -0.37300
N1590       N  0.71356124  0.83591100  0.76891323    -0.37300
C1591       C  0.77766806  0.74168027  0.53580348    -0.04000
C1592       C  0.78753455  0.77301969  0.55032206    -0.01100
C1593       C  0.77843889  0.77510695  0.57685153     0.03900
C1594       C  0.75841976  0.74598947  0.58901135    -0.04000
C1595       C  0.74981771  0.71393221  0.57440290    -0.01100
C1596       C  0.75958099  0.71183288  0.54805732     0.03900
C1597       C  0.80504082  0.80418369  0.53753037     0.38500
C1598       C  0.72966345  0.68338476  0.58595519     0.38500
C1599       C  0.74936528  0.67945320  0.53302589     0.36900
C1600       C  0.79039548  0.80725324  0.59143130     0.36900
N1601       N  0.74106292  0.65379690  0.52098949    -0.37900
N1602       N  0.80000957  0.83298394  0.60290428    -0.37900
N1603       N  0.71374338  0.65889295  0.59509903    -0.37300
N1604       N  0.81877383  0.82917090  0.52734686    -0.37300
C1605       C  0.85865982  0.65188469  0.66841731    -0.04000
C1606       C  0.86529894  0.65024271  0.64138313    -0.01100
C1607       C  0.88913135  0.62312340  0.63104025     0.03900
C1608       C  0.90767642  0.59805743  0.64766995    -0.04000
C1609       C  0.90290361  0.60136354  0.67491407    -0.01100
C1610       C  0.87792567  0.62761413  0.68515192     0.03900
C1611       C  0.84799226  0.67703835  0.62409113     0.38500
C1612       C  0.92462637  0.57862581  0.69261245     0.38500
C1613       C  0.87108826  0.62872305  0.71280174     0.36900
C1614       C  0.89341521  0.62021182  0.60318167     0.36900
N1615       N  0.86551122  0.62934742  0.73486155    -0.37900
N1616       N  0.89674217  0.61776291  0.58095607    -0.37900
N1617       N  0.94216014  0.56079954  0.70677603    -0.37300
N1618       N  0.83455868  0.69857948  0.61026588    -0.37300
C1619       C  0.65523242  0.65240103  0.70622396    -0.04000
C1620       C  0.62357467  0.66661463  0.71899074    -0.01100
C1621       C  0.59804784  0.64253205  0.73058101     0.03900
C1622       C  0.60235463  0.60401299  0.72836824    -0.04000
C1623       C  0.63214321  0.58956195  0.71405556    -0.01100
C1624       C  0.65889307  0.61358567  0.70337283     0.03900
C1625       C  0.61639561  0.70618545  0.71991775     0.38500
C1626       C  0.63442522  0.55002690  0.70946724     0.38500
C1627       C  0.69027720  0.59810198  0.68991234     0.36900
C1628       C  0.56751738  0.65751423  0.74529956     0.36900
N1629       N  0.71523445  0.58561133  0.67912595    -0.37900
N1630       N  0.54349822  0.66963488  0.75724166    -0.37900
N1631       N  0.63593337  0.51854572  0.70552299    -0.37300
N1632       N  0.61047165  0.73764451  0.72086639    -0.37300
C1633       C  0.65803145  0.85173437  0.70441594    -0.04000
C1634       C  0.66974117  0.88265203  0.71893190    -0.01100
C1635       C  0.64364115  0.90551554  0.73138283     0.03900
C1636       C  0.60549813  0.89776640  0.72939278    -0.04000
C1637       C  0.59380776  0.86727444  0.71433692    -0.01100
C1638       C  0.61995938  0.84453939  0.70183537     0.03900
C1639       C  0.70879881  0.89020062  0.72189963     0.38500
C1640       C  0.55475487  0.86013183  0.71077723     0.38500
C1641       C  0.60771614  0.81420052  0.68563857     0.36900
C1642       C  0.65616457  0.93640193  0.74698923     0.36900
N1643       N  0.59797615  0.79022964  0.67248339    -0.37900
N1644       N  0.66617509  0.96094957  0.75951148    -0.37900
N1645       N  0.52358961  0.85455907  0.70790644    -0.37300
N1646       N  0.73991337  0.89619012  0.72458437    -0.37300
C1647       C  0.60300810  0.09447072  0.77343177    -0.04000
C1648       C  0.60943321  0.10033884  0.80032781    -0.01100
C1649       C  0.63509971  0.12707769  0.80879716     0.03900
C1650       C  0.65495275  0.14827797  0.79059477    -0.04000
C1651       C  0.64977686  0.14127817  0.76373455    -0.01100
C1652       C  0.62326541  0.11534542  0.75523879     0.03900
C1653       C  0.58929551  0.07937021  0.81966923     0.38500
C1654       C  0.67248660  0.15995207  0.74462938     0.38500
C1655       C  0.61516600  0.11213086  0.72775148     0.36900
C1656       C  0.64004257  0.13344745  0.83637437     0.36900
N1657       N  0.60836949  0.11001616  0.70585490    -0.37900
N1658       N  0.64395554  0.13837278  0.85837354    -0.37900
N1659       N  0.69072867  0.17460081  0.72938474    -0.37300
N1660       N  0.57298226  0.06332347  0.83529036    -0.37300
C1661       C  0.50202218  0.97480996  0.84980059    -0.04000
C1662       C  0.53403899  0.98405603  0.86403844    -0.01100
C1663       C  0.53124300  0.99699034  0.88974695     0.03900
C1664       C  0.49639999  0.00014419  0.90162187    -0.04000
C1665       C  0.46449651  0.98950543  0.88769293    -0.01100
C1666       C  0.46727514  0.97719703  0.86183808     0.03900
C1667       C  0.56992800  0.98027537  0.85207574     0.38500
C1668       C  0.42874897  0.99105472  0.90010590     0.38500
C1669       C  0.43424048  0.96792447  0.84727143     0.36900
C1670       C  0.56434913  0.00605666  0.90431200     0.36900
N1671       N  0.40792197  0.96069267  0.83556854    -0.37900
N1672       N  0.59068807  0.01331100  0.91598797    -0.37900
N1673       N  0.40024613  0.99225971  0.91002326    -0.37300
N1674       N  0.59856351  0.97717435  0.84254703    -0.37300
C1675       C  0.50379624  0.98720442  0.59891347    -0.04000
C1676       C  0.48141522  0.01534698  0.60979294    -0.01100
C1677       C  0.48213983  0.02198114  0.63666779     0.03900
C1678       C  0.50642365  0.00182383  0.65286233    -0.04000
C1679       C  0.52955272  0.97432857  0.64190323    -0.01100
C1680       C  0.52801354  0.96692642  0.61508224     0.03900
C1681       C  0.45919457  0.03936634  0.59327681     0.38500
C1682       C  0.55408639  0.95242892  0.65822517     0.38500
C1683       C  0.55074912  0.93780008  0.60423314     0.36900
C1684       C  0.45844370  0.05033094  0.64752278     0.36900
N1685       N  0.56883999  0.91456730  0.59556214    -0.37900
N1686       N  0.43940171  0.07283451  0.65612016    -0.37900
N1687       N  0.57389695  0.93489138  0.67099595    -0.37300
N1688       N  0.44170008  0.05905176  0.58037691    -0.37300
C1689       C  0.60166496  0.89916922  0.97963432    -0.04000
C1690       C  0.63850414  0.91138108  0.97681246    -0.01100
C1691       C  0.66542908  0.88754308  0.96625142     0.03900
C1692       C  0.65558231  0.85170691  0.95798713    -0.04000
C1693       C  0.61878920  0.83964797  0.96047599    -0.01100
C1694       C  0.59199370  0.86312593  0.97123654     0.03900
C1695       C  0.63860027  0.90433427  0.52202236     0.38500
C1696       C  0.60846339  0.80273867  0.95202331     0.38500
C1697       C  0.55447278  0.84967796  0.97390220     0.36900
C1698       C  0.70358829  0.89926979  0.96492864     0.36900
N1699       N  0.52455977  0.83896015  0.97579313    -0.37900
N1700       N  0.71890678  0.84791125  0.51728696    -0.37900
N1701       N  0.60028191  0.77330406  0.94537524    -0.37300
N1702       N  0.63877013  0.91300426  0.54359410    -0.37300
C1703       C  0.59027293  0.10112129  0.52115790    -0.04000
C1704       C  0.59760616  0.10461746  0.54809202    -0.01100
C1705       C  0.62335387  0.13084687  0.55725306     0.03900
C1706       C  0.64057498  0.15558905  0.53979178    -0.04000
C1707       C  0.63102133  0.15363463  0.51292052    -0.01100
C1708       C  0.60702212  0.12584026  0.50369489     0.03900
C1709       C  0.57775221  0.08192662  0.56667810     0.38500
C1710       C  0.67146596  0.15215019  0.99594503     0.38500
C1711       C  0.61929244  0.09994058  0.97678592     0.36900
C1712       C  0.63127664  0.13265418  0.58483672     0.36900
N1713       N  0.62036090  0.09073465  0.95534727    -0.37900
N1714       N  0.63765432  0.13378639  0.60683411    -0.37900
N1715       N  0.69357917  0.16408487  0.98216847    -0.37300
N1716       N  0.56181293  0.06405866  0.58152950    -0.37300
C1717       C  0.15974527  0.64433227  0.91352563    -0.04000
C1718       C  0.13608679  0.62602750  0.93083796    -0.01100
C1719       C  0.11132106  0.59912254  0.92158934     0.03900
C1720       C  0.10931622  0.59079621  0.89463455    -0.04000
C1721       C  0.13519170  0.60709372  0.87768939    -0.01100
C1722       C  0.16034428  0.63368851  0.88713792     0.03900
C1723       C  0.13585216  0.63617092  0.95805580     0.38500
C1724       C  0.13538517  0.59763472  0.85039306     0.38500
C1725       C  0.18713422  0.64993957  0.86966344     0.36900
C1726       C  0.08805347  0.58008061  0.94020398     0.36900
N1727       N  0.20855365  0.66277596  0.85574083    -0.37900
N1728       N  0.06953260  0.56523136  0.95518154    -0.37900
N1729       N  0.13575832  0.59002859  0.82862597    -0.37300
N1730       N  0.13569523  0.64433613  0.97972253    -0.37300
C1731       C  0.34571149  0.65432045  0.95839845    -0.04000
C1732       C  0.38404414  0.66218228  0.95783488    -0.01100
C1733       C  0.40987282  0.63721803  0.96905244     0.03900
C1734       C  0.39794238  0.60399350  0.98091200    -0.04000
C1735       C  0.35990623  0.59571390  0.98109239    -0.01100
C1736       C  0.33410240  0.62022451  0.96963445     0.03900
C1737       C  0.39742776  0.69579897  0.94565809     0.38500
C1738       C  0.38145885  0.61561951  0.52580927     0.38500
C1739       C  0.29560247  0.60919741  0.96874540     0.36900
C1740       C  0.44902119  0.64502474  0.96729737     0.36900
N1741       N  0.26496715  0.60031075  0.96814337    -0.37900
N1742       N  0.48025229  0.65113275  0.96585234    -0.37900
N1743       N  0.38001462  0.60686903  0.54738755    -0.37300
N1744       N  0.40840882  0.72240585  0.93580127    -0.37300
C1745       C  0.39515798  0.89664130  0.98670287    -0.04000
C1746       C  0.39958075  0.85792238  0.98859711    -0.01100
C1747       C  0.37401789  0.83414805  0.97641755     0.03900
C1748       C  0.34479724  0.84901565  0.96125332    -0.04000
C1749       C  0.34024910  0.88787129  0.95984058    -0.01100
C1750       C  0.36500687  0.91151354  0.97277158     0.03900
C1751       C  0.44689148  0.84789845  0.47806921     0.38500
C1752       C  0.31083640  0.90413079  0.94450930     0.38500
C1753       C  0.36038196  0.95142169  0.97073580     0.36900
C1754       C  0.37650587  0.79453511  0.98092940     0.36900
N1755       N  0.35669650  0.98319735  0.96915703    -0.37900
N1756       N  0.37819408  0.76303316  0.98498556    -0.37900
N1757       N  0.28807137  0.91878185  0.93248331    -0.37300
N1758       N  0.47688490  0.83737975  0.48053601    -0.37300
C1759       C  0.23871211  0.75690426  0.78614092    -0.04000
C1760       C  0.22764617  0.78801418  0.80072322    -0.01100
C1761       C  0.23833496  0.79125604  0.82690798     0.03900
C1762       C  0.25931635  0.76306983  0.83917035    -0.04000
C1763       C  0.27141013  0.73256570  0.82459785    -0.01100
C1764       C  0.26138673  0.72949049  0.79819289     0.03900
C1765       C  0.20400597  0.81622612  0.78921216     0.38500
C1766       C  0.29270224  0.70335771  0.83710647     0.38500
C1767       C  0.27515952  0.69817533  0.78357787     0.36900
C1768       C  0.22701835  0.82355501  0.84148451     0.36900
N1769       N  0.28623293  0.67302085  0.77217185    -0.37900
N1770       N  0.21784225  0.84945674  0.85286868    -0.37900
N1771       N  0.30963009  0.68003895  0.84707855    -0.37300
N1772       N  0.18514051  0.83878147  0.78014909    -0.37300
C1773       C  0.25830656  0.74052830  0.58944901    -0.04000
C1774       C  0.23162694  0.71714993  0.57775055    -0.01100
C1775       C  0.22380347  0.71993633  0.55104914     0.03900
C1776       C  0.24350611  0.74504590  0.53548440    -0.04000
C1777       C  0.27205356  0.76656714  0.54682812    -0.01100
C1778       C  0.27914030  0.76454482  0.57375679     0.03900
C1779       C  0.21157061  0.69038404  0.59329083     0.38500
C1780       C  0.29479871  0.79042222  0.53084627     0.38500
C1781       C  0.30669912  0.78840008  0.58540562     0.36900
C1782       C  0.19412177  0.69823143  0.53987584     0.36900
N1783       N  0.32869289  0.80744689  0.59466852    -0.37900
N1784       N  0.17023980  0.68113368  0.53105854    -0.37900
N1785       N  0.31319581  0.80949219  0.51833424    -0.37300
N1786       N  0.19534688  0.66908716  0.60552966    -0.37300
C1787       C  0.09492288  0.59921269  0.64465140    -0.04000
C1788       C  0.08046167  0.63134151  0.65646998    -0.01100
C1789       C  0.10443087  0.65765186  0.66773027     0.03900
C1790       C  0.14291211  0.65152250  0.66797550    -0.04000
C1791       C  0.15730818  0.61935790  0.65624315    -0.01100
C1792       C  0.13346011  0.59341057  0.64457883     0.03900
C1793       C  0.04085350  0.63657962  0.65808064     0.38500
C1794       C  0.19689309  0.61400559  0.65474108     0.38500
C1795       C  0.14868872  0.56118892  0.63174159     0.36900
C1796       C  0.08949972  0.69097473  0.67926193     0.36900
N1797       N  0.16073025  0.53552859  0.62141345    -0.37900
N1798       N  0.07761078  0.71761481  0.68840766    -0.37900
N1799       N  0.22844576  0.60994083  0.65313960    -0.37300
N1800       N  0.00925971  0.64059327  0.65949065    -0.37300
C1801       C  0.39237281  0.60509589  0.73556695    -0.04000
C1802       C  0.39935717  0.64334605  0.73287292    -0.01100
C1803       C  0.37262947  0.66704434  0.72175696     0.03900
C1804       C  0.33832229  0.65277206  0.71330550    -0.04000
C1805       C  0.33056146  0.61473609  0.71726646    -0.01100
C1806       C  0.35757298  0.59096888  0.72820748     0.03900
C1807       C  0.43381978  0.65863686  0.74230005     0.38500
C1808       C  0.29514733  0.59964113  0.70957345     0.38500
C1809       C  0.35000939  0.55168298  0.73084983     0.36900
C1810       C  0.38006585  0.70649762  0.72009591     0.36900
N1811       N  0.34391484  0.52036716  0.73292698    -0.37900
N1812       N  0.38596759  0.73793567  0.71882042    -0.37900
N1813       N  0.26692013  0.58728738  0.70369529    -0.37300
N1814       N  0.46111367  0.67107258  0.74997173    -0.37300
C1815       C  0.40743462  0.89070681  0.72797100    -0.04000
C1816       C  0.38397254  0.87208159  0.74537150    -0.01100
C1817       C  0.35564287  0.84869291  0.73591334     0.03900
C1818       C  0.35062973  0.84322977  0.70884259    -0.04000
C1819       C  0.37507452  0.86077539  0.69151391    -0.01100
C1820       C  0.40327543  0.88429728  0.70099908     0.03900
C1821       C  0.38813939  0.87795413  0.77302932     0.38500
C1822       C  0.37013887  0.85617488  0.66381239     0.38500
C1823       C  0.42842767  0.90173133  0.68289853     0.36900
C1824       C  0.33172378  0.83005427  0.75425567     0.36900
N1825       N  0.44861089  0.91558265  0.66853697    -0.37900
N1826       N  0.31262473  0.81533804  0.76892928    -0.37900
N1827       N  0.36616600  0.85275851  0.64167869    -0.37300
N1828       N  0.39147285  0.88256939  0.79510600    -0.37300
C1829       C  0.15629331  0.34808450  0.83241386    -0.04000
C1830       C  0.15032358  0.35343356  0.85934298    -0.01100
C1831       C  0.12282927  0.37828705  0.86810331     0.03900
C1832       C  0.10105259  0.39849631  0.85016249    -0.04000
C1833       C  0.10630213  0.39238510  0.82324574    -0.01100
C1834       C  0.13354416  0.36726715  0.81447777     0.03900
C1835       C  0.17193876  0.33270252  0.87827414     0.38500
C1836       C  0.08315568  0.41151721  0.80436834     0.38500
C1837       C  0.13880621  0.36206156  0.78687590     0.36900
C1838       C  0.11778982  0.38386161  0.89568144     0.36900
N1839       N  0.14295562  0.35787868  0.76485451    -0.37900
N1840       N  0.11373060  0.38825949  0.91768793    -0.37900
N1841       N  0.06474368  0.42678067  0.78930924    -0.37300
N1842       N  0.18917084  0.31622251  0.89339157    -0.37300
C1843       C  0.35744467  0.35115550  0.79537965    -0.04000
C1844       C  0.39049366  0.34157037  0.78239495    -0.01100
C1845       C  0.41268915  0.36904317  0.77071122     0.03900
C1846       C  0.40415413  0.40717293  0.77360849    -0.04000
C1847       C  0.37161760  0.41676219  0.78753138    -0.01100
C1848       C  0.34846917  0.38906734  0.79803528     0.03900
C1849       C  0.40266609  0.30321035  0.78159651     0.38500
C1850       C  0.36067845  0.45521313  0.79071914     0.38500
C1851       C  0.31471007  0.40005688  0.81094531     0.36900
C1852       C  0.44414778  0.35729083  0.75553694     0.36900
N1853       N  0.28788803  0.40901897  0.82123874    -0.37900
N1854       N  0.46885889  0.34752041  0.74321097    -0.37900
N1855       N  0.35187519  0.48575020  0.79355229    -0.37300
N1856       N  0.41250367  0.27271342  0.78101695    -0.37300
C1857       C  0.39786538  0.08613337  0.77231610    -0.04000
C1858       C  0.37629782  0.10628758  0.75420859    -0.01100
C1859       C  0.35066589  0.13296650  0.76284799     0.03900
C1860       C  0.34679111  0.14036134  0.78966897    -0.04000
C1861       C  0.36675572  0.11891674  0.80782529    -0.01100
C1862       C  0.39205772  0.09193519  0.79927391     0.03900
C1863       C  0.38165641  0.10114303  0.72661804     0.38500
C1864       C  0.36246398  0.12557732  0.83538307     0.38500
C1865       C  0.41228659  0.07048678  0.81856873     0.36900
C1866       C  0.32774668  0.15244389  0.74400535     0.36900
N1867       N  0.42853772  0.05392084  0.83415305    -0.37900
N1868       N  0.30935467  0.16783872  0.72900395    -0.37900
N1869       N  0.35906362  0.13079740  0.85735891    -0.37300
N1870       N  0.38592669  0.09720456  0.70458944    -0.37300
C1871       C  0.26187243  0.24216581  0.90900758    -0.04000
C1872       C  0.22851135  0.22657158  0.91811422    -0.01100
C1873       C  0.21986908  0.22791270  0.94464805     0.03900
C1874       C  0.24467938  0.24434401  0.96214437    -0.04000
C1875       C  0.27891619  0.25797751  0.95328226    -0.01100
C1876       C  0.28697817  0.25798940  0.92663179     0.03900
C1877       C  0.20231458  0.21028007  0.90011351     0.38500
C1878       C  0.30696525  0.26937961  0.97176867     0.38500
C1879       C  0.32141146  0.27342580  0.91743220     0.36900
C1880       C  0.18546162  0.21252447  0.95396271     0.36900
N1881       N  0.34885906  0.28583450  0.91012384    -0.37900
N1882       N  0.15805640  0.20017090  0.96139285    -0.37900
N1883       N  0.32962562  0.27762916  0.98652655    -0.37300
N1884       N  0.18133555  0.19718729  0.88589262    -0.37300
C1885       C  0.26487723  0.24782547  0.65866535    -0.04000
C1886       C  0.28158301  0.27587505  0.67348012    -0.01100
C1887       C  0.27323703  0.27931280  0.70001002     0.03900
C1888       C  0.24864128  0.25423495  0.71213153    -0.04000
C1889       C  0.23256693  0.22564842  0.69751089    -0.01100
C1890       C  0.24034865  0.22260223  0.67086717     0.03900
C1891       C  0.30628654  0.30214525  0.66131942     0.38500
C1892       C  0.20944474  0.19826985  0.71010443     0.38500
C1893       C  0.22296089  0.19329163  0.65598207     0.36900
C1894       C  0.28990542  0.30900404  0.71490936     0.36900
N1895       N  0.20882258  0.17018835  0.64407046    -0.37900
N1896       N  0.30323225  0.33255967  0.72683950    -0.37900
N1897       N  0.19118524  0.17629475  0.72014869    -0.37300
N1898       N  0.32615096  0.32311792  0.65178267    -0.37300
C1899       C  0.10808433  0.40545978  0.59824776    -0.04000
C1900       C  0.13972062  0.39631703  0.61321310    -0.01100
C1901       C  0.16690901  0.37254066  0.60301870     0.03900
C1902       C  0.16287836  0.35764378  0.57784919    -0.04000
C1903       C  0.13307204  0.36873133  0.56215324    -0.01100
C1904       C  0.10568352  0.39229479  0.57219534     0.03900
C1905       C  0.14383588  0.40972623  0.63953887     0.38500
C1906       C  0.12953752  0.35429025  0.53601798     0.38500
C1907       C  0.07482655  0.40202066  0.55538361     0.36900
C1908       C  0.19917864  0.36310229  0.61855913     0.36900
N1909       N  0.05014812  0.40898194  0.54186466    -0.37900
N1910       N  0.22494024  0.35558659  0.63087952    -0.37900
N1911       N  0.12672601  0.34282910  0.51518919    -0.37300
N1912       N  0.14729197  0.42034837  0.66054518    -0.37300
C1913       C  0.39719039  0.40814175  0.52142609    -0.04000
C1914       C  0.38100480  0.38440584  0.50299281    -0.01100
C1915       C  0.35629794  0.35649586  0.51105749     0.03900
C1916       C  0.34788134  0.35189113  0.53771339    -0.04000
C1917       C  0.36350773  0.37618207  0.55602426    -0.01100
C1918       C  0.38799365  0.40417469  0.54794738     0.03900
C1919       C  0.36153052  0.40725802  0.97936900     0.38500
C1920       C  0.35310232  0.37356300  0.58306364     0.38500
C1921       C  0.40307747  0.42959043  0.56698160     0.36900
C1922       C  0.30564658  0.36004152  0.99731999     0.36900
N1923       N  0.41508846  0.44987314  0.58212488    -0.37900
N1924       N  0.28112957  0.35409528  0.98348845    -0.37900
N1925       N  0.34468256  0.37178743  0.60462599    -0.37300
N1926       N  0.35982009  0.41807388  0.95822864    -0.37300
C1927       C  0.35684907  0.15214177  0.54616741    -0.04000
C1928       C  0.38656438  0.16247100  0.53017978    -0.01100
C1929       C  0.40944421  0.13514388  0.51878234     0.03900
C1930       C  0.40295146  0.09670776  0.52324993    -0.04000
C1931       C  0.37340438  0.08690854  0.54017520    -0.01100
C1932       C  0.35157307  0.11446339  0.55200748     0.03900
C1933       C  0.39322857  0.20144335  0.52504945     0.38500
C1934       C  0.36424434  0.04849165  0.54545540     0.38500
C1935       C  0.32443678  0.10418585  0.57132520     0.36900
C1936       C  0.43965378  0.14726489  0.50256339     0.36900
N1937       N  0.30342342  0.09614632  0.58715938    -0.37900
N1938       N  0.46362776  0.15724719  0.48959957    -0.37900
N1939       N  0.35667976  0.01802073  0.54996331    -0.37300
N1940       N  0.39843760  0.23254371  0.52100027    -0.37300
C1941       C  0.89491668  0.10351762  0.85645056    -0.04000
C1942       C  0.90039430  0.14183904  0.85980291    -0.01100
C1943       C  0.87624529  0.16752487  0.84790673     0.03900
C1944       C  0.84625425  0.15492999  0.83274548    -0.04000
C1945       C  0.84039702  0.11653388  0.82980202    -0.01100
C1946       C  0.86465504  0.09087727  0.84166649     0.03900
C1947       C  0.93040609  0.15471497  0.87610979     0.38500
C1948       C  0.81004375  0.10350916  0.81386370     0.38500
C1949       C  0.85898318  0.05144464  0.83823753     0.36900
C1950       C  0.88161665  0.20690417  0.85194656     0.36900
N1951       N  0.85446272  0.01996997  0.83561554    -0.37900
N1952       N  0.88587543  0.23830452  0.85515676    -0.37900
N1953       N  0.78594902  0.09320590  0.80099848    -0.37300
N1954       N  0.95404841  0.16490831  0.88941673    -0.37300
C1955       C  0.85415863  0.85042428  0.91556922    -0.04000
C1956       C  0.87489491  0.87196230  0.93307770    -0.01100
C1957       C  0.90041276  0.89845526  0.92376625     0.03900
C1958       C  0.90520235  0.90419176  0.89671914    -0.04000
C1959       C  0.88480781  0.88229638  0.87921197    -0.01100
C1960       C  0.85945770  0.85563460  0.88854276     0.03900
C1961       C  0.86862764  0.86825977  0.96069742     0.38500
C1962       C  0.88870850  0.88823871  0.85154919     0.38500
C1963       C  0.83880265  0.83340623  0.87015862     0.36900
C1964       C  0.92220286  0.91949925  0.94221258     0.36900
N1965       N  0.82232638  0.81576318  0.85545597    -0.37900
N1966       N  0.93959639  0.93618550  0.95695172    -0.37900
N1967       N  0.89166168  0.89303195  0.82946236    -0.37300
N1968       N  0.86346121  0.86563603  0.98274234    -0.37300
C1969       C  0.09654581  0.91022601  0.90148568    -0.04000
C1970       C  0.08211012  0.87718577  0.91233808    -0.01100
C1971       C  0.10607596  0.84985626  0.92273655     0.03900
C1972       C  0.14458216  0.85496496  0.92191118    -0.04000
C1973       C  0.15886627  0.88781486  0.91105234    -0.01100
C1974       C  0.13506701  0.91585802  0.90182067     0.03900
C1975       C  0.04252453  0.87185587  0.91375794     0.38500
C1976       C  0.19816100  0.89131289  0.90699123     0.38500
C1977       C  0.15072998  0.95018981  0.89235487     0.36900
C1978       C  0.09115803  0.81659394  0.93447262     0.36900
N1979       N  0.16412482  0.97748923  0.88542140    -0.37900
N1980       N  0.07922997  0.79012765  0.94394466    -0.37900
N1981       N  0.22933628  0.89356951  0.90283982    -0.37300
N1982       N  0.01093835  0.86772600  0.91487667    -0.37300
C1983       C  0.10033799  0.10880526  0.85293181    -0.04000
C1984       C  0.09252217  0.14695777  0.84945898    -0.01100
C1985       C  0.11809378  0.17051309  0.83698109     0.03900
C1986       C  0.15191799  0.15619792  0.82787138    -0.04000
C1987       C  0.15898129  0.11779921  0.83029230    -0.01100
C1988       C  0.13333746  0.09429591  0.84262266     0.03900
C1989       C  0.05820168  0.16223077  0.85893774     0.38500
C1990       C  0.19212418  0.10213424  0.81907509     0.38500
C1991       C  0.13960277  0.05466442  0.84262086     0.36900
C1992       C  0.10992438  0.20971619  0.83423264     0.36900
N1993       N  0.14437692  0.02302964  0.84175694    -0.49100
N1994       N  0.10339424  0.24095288  0.83190201    -0.37900
N1995       N  0.21848129  0.08971431  0.81001053    -0.37300
N1996       N  0.03088784  0.17475401  0.86638006    -0.37300
C1997       C  0.00709894  0.00835667  0.72443310    -0.04000
C1998       C  0.03335928  0.02674117  0.73995123    -0.01100
C1999       C  0.03605271  0.01846889  0.76658732     0.03900
C2000       C  0.01177476  0.99258852  0.77815913    -0.04000
C2001       C  0.98740809  0.97231488  0.76242054    -0.01100
C2002       C  0.98532913  0.97981696  0.73559175     0.03900
C2003       C  0.05665197  0.05530421  0.72885480     0.38500
C2004       C  0.96324412  0.94495730  0.77396054     0.38500
C2005       C  0.96135323  0.95729163  0.71950363     0.36900
C2006       C  0.06361848  0.03722439  0.78221148     0.36900
N2007       N  0.94230383  0.93905747  0.70683205    -0.37900
N2008       N  0.08572384  0.05239758  0.79439800    -0.37900
N2009       N  0.94397345  0.92310094  0.78313937    -0.37300
N2010       N  0.07521899  0.07809499  0.72005398    -0.37300
C2011       C  0.98785172  0.99411994  0.52734487    -0.04000
C2012       C  0.96183075  0.01781490  0.51505237    -0.01100
C2013       C  0.96611309  0.02327973  0.98831583     0.03900
C2014       C  0.99718803  0.01167107  0.97403218    -0.04000
C2015       C  0.02289598  0.98696414  0.98585838    -0.01100
C2016       C  0.01474128  0.97616964  0.51233326     0.03900
C2017       C  0.93252314  0.03475613  0.53000210     0.38500
C2018       C  0.05317134  0.97162545  0.97107573     0.38500
C2019       C  0.04128337  0.95148159  0.52460267     0.36900
C2020       C  0.93959179  0.04898997  0.97700069     0.36900
N2021       N  0.06250920  0.93175273  0.53429079    -0.37900
N2022       N  0.91846820  0.06951537  0.96802681    -0.37900
N2023       N  0.07733811  0.95911319  0.95945664    -0.37300
N2024       N  0.90921045  0.04845440  0.54181920    -0.37300
C2025       C  0.89205590  0.10256713  0.61256496    -0.04000
C2026       C  0.89582950  0.14110654  0.61576999    -0.01100
C2027       C  0.86956517  0.16552525  0.60478707     0.03900
C2028       C  0.83901320  0.15146112  0.59078353    -0.04000
C2029       C  0.83431987  0.11277355  0.58868811    -0.01100
C2030       C  0.86108019  0.08843430  0.59918722     0.03900
C2031       C  0.92662264  0.15558490  0.63061602     0.38500
C2032       C  0.80273919  0.09797711  0.57483498     0.38500
C2033       C  0.85793710  0.04891932  0.59477379     0.36900
C2034       C  0.87356983  0.20515746  0.60845541     0.36900
N2035       N  0.85566967  0.01747384  0.59089748    -0.37900
N2036       N  0.87666601  0.23676851  0.61131791    -0.37900
N2037       N  0.77750998  0.08613238  0.56384680    -0.37300
N2038       N  0.95093849  0.16721590  0.64267858    -0.37300
C2039       C  0.85493108  0.85067896  0.66796940    -0.04000
C2040       C  0.84271198  0.88730476  0.66272056    -0.01100
C2041       C  0.86710807  0.91396683  0.65263933     0.03900
C2042       C  0.90430645  0.90468988  0.64760541    -0.04000
C2043       C  0.91683530  0.86834056  0.65327493    -0.01100
C2044       C  0.89231229  0.84148424  0.66332023     0.03900
C2045       C  0.80484907  0.89813816  0.66780088     0.38500
C2046       C  0.95536125  0.85875327  0.64972999     0.38500
C2047       C  0.90557298  0.80409204  0.66804338     0.36900
C2048       C  0.85338619  0.95108196  0.64731637     0.36900
N2049       N  0.91628242  0.77431046  0.67179377    -0.37900
N2050       N  0.84216778  0.98063537  0.64345707    -0.37900
N2051       N  0.98609925  0.85115208  0.64695219    -0.37300
N2052       N  0.77465545  0.90699179  0.67146111    -0.37300
C2053       C  0.15212369  0.85892963  0.66374947    -0.04000
C2054       C  0.14974198  0.86711998  0.63681939    -0.01100
C2055       C  0.12264241  0.89184698  0.62724635     0.03900
C2056       C  0.09797972  0.90881759  0.64446758    -0.04000
C2057       C  0.10072667  0.90115633  0.67138858    -0.01100
C2058       C  0.12789982  0.87660095  0.68100805     0.03900
C2059       C  0.17599251  0.85098753  0.61894343     0.38500
C2060       C  0.07466610  0.91764777  0.68922678     0.38500
C2061       C  0.13007150  0.86871936  0.70858229     0.36900
C2062       C  0.12087257  0.90064887  0.59980434     0.36900
N2063       N  0.13182895  0.86261834  0.73060296    -0.37900
N2064       N  0.11965045  0.90764454  0.57789870    -0.37900
N2065       N  0.05383408  0.93062077  0.70346522    -0.37300
N2066       N  0.19698488  0.83818725  0.60473049    -0.37300
C2067       C  0.09951207  0.10379746  0.60233623    -0.04000
C2068       C  0.09063924  0.14145595  0.59837322    -0.01100
C2069       C  0.11602267  0.16541761  0.58642345     0.03900
C2070       C  0.15133957  0.15232641  0.57906824    -0.04000
C2071       C  0.15996355  0.11435851  0.58270782    -0.01100
C2072       C  0.13406438  0.09020125  0.59416767     0.03900
C2073       C  0.05545806  0.15585735  0.60711438     0.38500
C2074       C  0.19563300  0.09997126  0.57515908     0.38500
C2075       C  0.14252217  0.05103212  0.59672121     0.36900
C2076       C  0.10517585  0.20351792  0.58124075     0.36900
N2077       N  0.14917897  0.01977410  0.59866207    -0.37900
N2078       N  0.09642752  0.23384383  0.57713948    -0.37900
N2079       N  0.22393247  0.08821055  0.56900275    -0.37300
N2080       N  0.02748359  0.16738852  0.61414130    -0.37300
loop_ 
_geom_bond_atom_site_label_1 
_geom_bond_atom_site_label_2 
_geom_bond_distance 
_geom_bond_site_symmetry_2 
_ccdc_geom_bond_type 
Zn1           O5   1.953   1_455  S
Zn1           O6   2.041       .  S
Zn1          O10   1.971   1_545  S
Zn1          O17   2.003       .  S
Zn2           O5   1.916       .  S
Zn2           O7   1.927       .  S
Zn2           O9   1.964   1_655  S
Zn2          O13   1.975       .  S
Zn3           O5   1.985   1_565  S
Zn3           O8   2.052   1_655  S
Zn3          O11   2.082       .  S
Zn3          O14   2.052       .  S
Zn4           O5   1.951       .  S
Zn4          O12   1.983   1_545  S
Zn4          O15   2.053       .  S
Zn4          O16   2.004       .  S
O6           C18   1.274       .  A
O7           C19   1.263   1_545  A
O8           C20   1.278       .  A
O9           C18   1.266       .  A
O10          C20   1.267       .  A
O11          C19   1.281       .  A
O12          C21   1.269       .  A
O13          C22   1.266       .  A
O14          C21   1.278       .  A
O15          C22   1.276       .  A
O16          C23   1.273       .  A
O17          C23   1.274   1_455  A
C18        C1027   1.477       .  S
C19         C971   1.480       .  S
C20        C1016   1.491       .  S
C21        C1002   1.495       .  S
C22         C985   1.480       .  S
C23         C957   1.486   1_655  S
Zn24         O28   1.959       .  S
Zn24         O29   2.000       .  S
Zn24         O33   2.005   1_545  S
Zn24         O40   2.069       .  S
Zn25         O28   1.961   1_455  S
Zn25         O30   2.005   1_545  S
Zn25         O32   2.012       .  S
Zn25         O36   2.066       .  S
Zn26         O28   1.983   1_465  S
Zn26         O31   2.066   1_455  S
Zn26         O34   2.041       .  S
Zn26         O37   2.071       .  S
Zn27         O28   1.921       .  S
Zn27         O35   1.927   1_655  S
Zn27         O38   1.970   1_655  S
Zn27         O39   1.956       .  S
O29          C41   1.274       .  A
O30          C42   1.271       .  A
O31          C43   1.279       .  A
O32          C41   1.276   1_455  A
O33          C43   1.272       .  A
O34          C42   1.277       .  A
O35          C44   1.263   1_545  A
O36          C45   1.278       .  A
O37          C44   1.281       .  A
O38          C45   1.265       .  A
O39          C46   1.265       .  A
O40          C46   1.279       .  A
C41         C974   1.486       .  S
C42         C929   1.498       .  S
C43         C918   1.495       .  S
C44         C960   1.481       .  S
C45         C943   1.485       .  S
C46         C901   1.490       .  S
Zn47         O51   1.960       .  S
Zn47         O52   2.056       .  S
Zn47         O56   2.003       .  S
Zn47         O63   1.990       .  S
Zn48         O51   1.907       .  S
Zn48         O53   1.905       .  S
Zn48         O55   1.943       .  S
Zn48         O59   1.964       .  S
Zn49         O51   1.980       .  S
Zn49         O54   2.070       .  S
Zn49         O57   2.100       .  S
Zn49         O60   2.060       .  S
Zn50         O51   1.956       .  S
Zn50         O58   1.984       .  S
Zn50         O61   2.049       .  S
Zn50         O62   2.008       .  S
O52          C64   1.275       .  A
O53          C65   1.260       .  A
O54          C66   1.280       .  A
O55          C64   1.264       .  A
O56          C66   1.273       .  A
O57          C65   1.284       .  A
O58          C67   1.268       .  A
O59          C68   1.264       .  A
O60          C67   1.280       .  A
O61          C68   1.276       .  A
O62        C1109   1.274   1_554  A
O63        C1109   1.271   1_554  A
C64        C1030   1.490       .  S
C65         C845   1.483       .  S
C66         C887   1.498       .  S
C67         C876   1.504       .  S
C68         C862   1.486       .  S
C69        O1102   1.273       .  A
C69        O1103   1.273       .  A
C69         C834   1.475       .  S
Zn70         O74   1.954       .  S
Zn70         O75   1.983       .  S
Zn70         O79   1.992       .  S
Zn70         O86   2.026       .  S
Zn71         O74   1.984       .  S
Zn71         O76   2.064       .  S
Zn71         O78   2.064       .  S
Zn71         O82   2.096       .  S
Zn72         O74   1.953       .  S
Zn72         O77   2.007       .  S
Zn72         O80   2.003       .  S
Zn72         O83   2.063       .  S
Zn73         O74   1.924       .  S
Zn73         O81   1.976       .  S
Zn73         O84   1.917       .  S
Zn73         O85   1.974       .  S
O75          C87   1.268       .  A
O76          C88   1.279       .  A
O77          C89   1.274       .  A
O78          C87   1.279       .  A
O79          C89   1.271       .  A
O80          C88   1.271       .  A
O81          C90   1.267       .  A
O82          C91   1.284       .  A
O83          C90   1.278       .  A
O84          C91   1.261       .  A
O85          C92   1.267       .  A
O86          C92   1.273       .  A
C87         C946   1.490       .  S
C88         C789   1.515       .  S
C89         C831   1.471       .  S
C90         C803   1.502       .  S
C91         C848   1.480       .  S
C92         C820   1.481       .  S
Zn93         O97   1.965       .  S
Zn93         O98   2.078       .  S
Zn93        O102   2.022       .  S
Zn93        O109   2.013       .  S
Zn94         O97   1.918       .  S
Zn94         O99   1.958       .  S
Zn94        O101   1.973       .  S
Zn94        O105   1.939       .  S
Zn95         O97   1.962       .  S
Zn95        O100   2.005       .  S
Zn95        O103   2.070       .  S
Zn95        O106   2.009       .  S
Zn96         O97   1.980       .  S
Zn96        O104   2.045       .  S
Zn96        O107   2.063       .  S
Zn96        O108   2.035       .  S
O98         C110   1.280       .  A
O99         C111   1.264       .  A
O100        C112   1.275       .  A
O101        C110   1.266       .  A
O102        C112   1.276       .  A
O103        C111   1.279       .  A
O104        C113   1.276       .  A
O105        C114   1.265       .  A
O106        C113   1.271       .  A
O107        C114   1.279       .  A
O108        C115   1.276       .  A
O109        C115   1.273       .  A
C110        C750   1.495       .  S
C111       C1013   1.503       .  S
C112        C719   1.497       .  S
C113        C778   1.493       .  S
C114        C733   1.472       .  S
C115        C764   1.484       .  S
Zn116       O120   1.924       .  S
Zn116       O121   1.988       .  S
Zn116       O125   1.988       .  S
Zn116       O132   1.933       .  S
Zn117       O120   1.956       .  S
Zn117       O122   2.003       .  S
Zn117       O124   2.052       .  S
Zn117       O128   1.977       .  S
Zn118       O120   1.952       .  S
Zn118       O123   2.057       .  S
Zn118       O126   2.013       .  S
Zn118       O129   1.992       .  S
Zn119       O120   1.986       .  S
Zn119       O127   2.061       .  S
Zn119       O130   2.038       .  S
Zn119       O131   2.079       .  S
O121        C133   1.269       .  A
O122       C1174   1.273       .  A
O123        C135   1.278       .  A
O124        C133   1.277       .  A
O125        C135   1.269       .  A
O126       C1174   1.275       .  A
O127        C136   1.278       .  A
O128        C137   1.267       .  A
O129        C136   1.271       .  A
O130        C137   1.277       .  A
O131        C138   1.281       .  A
O132        C138   1.264       .  A
C133        C932   1.492       .  S
C134       O1162   1.272   1_554  A
C134       O1166   1.273   1_554  A
C134        C736   1.495       .  S
C135        C677   1.495       .  S
C136        C691   1.499       .  S
C137        C708   1.495       .  S
C138        C722   1.479       .  S
Zn139      O1183   1.957       .  S
Zn139       O144   1.975   1_565  S
Zn139       O148   2.052       .  S
Zn139       O155   2.006       .  S
Zn140       O143   1.990   1_545  S
Zn140       O145   2.103       .  S
Zn140       O147   2.060       .  S
Zn140       O151   2.082       .  S
Zn141       O143   1.920       .  S
Zn141       O146   1.979       .  S
Zn141       O149   1.930       .  S
Zn141       O152   1.959       .  S
Zn142      O1183   1.942       .  S
Zn142       O150   2.041       .  S
Zn142       O153   1.981   1_565  S
Zn142       O154   1.993       .  S
O143      Zn1179   1.953       .  S
O143      Zn1182   1.946       .  S
O144        C156   1.268       .  A
O145        C157   1.284       .  A
O146        C158   1.267       .  A
O147       C1196   1.280       .  A
O148       C1198   1.276   1_554  A
O149        C157   1.262   1_565  A
O150       C1199   1.275   1_554  A
O151       C1200   1.281       .  A
O152        C159   1.266       .  A
O153        C160   1.269       .  A
O154        C161   1.271       .  A
O155        C161   1.273       .  A
C156       O1187   1.279   1_554  A
C156        C663   1.481       .  S
C157        C624   1.479       .  S
C158       O1188   1.277       .  A
C158        C649   1.501       .  S
C159       O1190   1.276       .  A
C159        C705   1.488       .  S
C160       O1191   1.281   1_554  A
C160        C890   1.511       .  S
C161        C635   1.481       .  S
Zn162       O166   1.955       .  S
Zn162       O167   1.997       .  S
Zn162       O171   2.012   1_565  S
Zn162       O178   2.050   1_565  S
Zn163       O166   1.987       .  S
Zn163       O168   2.059       .  S
Zn163       O170   2.067       .  S
Zn163       O174   2.092       .  S
Zn164       O166   1.949   1_545  S
Zn164       O169   1.996       .  S
Zn164       O172   1.970   1_545  S
Zn164       O175   2.042       .  S
Zn165       O166   1.916   1_545  S
Zn165       O173   1.969       .  S
Zn165       O176   1.933       .  S
Zn165       O177   1.953       .  S
O167        C179   1.270       .  A
O168        C180   1.279       .  A
O169        C181   1.272       .  A
O170        C179   1.280       .  A
O171        C181   1.275       .  A
O172        C180   1.268       .  A
O173        C182   1.265       .  A
O174        C183   1.282       .  A
O175        C182   1.274       .  A
O176        C183   1.263   1_545  A
O177        C184   1.265       .  A
O178        C184   1.277       .  A
C179        C775   1.493       .  S
C180        C596   1.486       .  S
C181        C638   1.480       .  S
C182        C607   1.491       .  S
C183        C621   1.477       .  S
C184        C817   1.493       .  S
Zn185       O189   1.982       .  S
Zn185       O190   2.050       .  S
Zn185       O194   2.066       .  S
Zn185       O201   2.088       .  S
Zn186       O189   1.958       .  S
Zn186       O191   2.011       .  S
Zn186       O193   1.988       .  S
Zn186       O197   2.059       .  S
Zn187       O189   1.957       .  S
Zn187       O192   1.996       .  S
Zn187       O195   1.998       .  S
Zn187       O198   2.059       .  S
Zn188       O189   1.908       .  S
Zn188       O196   1.933       .  S
Zn188       O199   1.967       .  S
Zn188       O200   1.930       .  S
O190        C202   1.279       .  A
O191        C203   1.274       .  A
O192        C204   1.271       .  A
O193        C202   1.271       .  A
O194        C204   1.280       .  A
O195        C203   1.272       .  A
O196        C205   1.263       .  A
O197        C206   1.276       .  A
O198        C205   1.278       .  A
O199        C206   1.264       .  A
O200        C207   1.262       .  A
O201        C207   1.282       .  A
C202        C999   1.498       .  S
C203        C554   1.494       .  S
C204        C565   1.490       .  S
C205        C579   1.486       .  S
C206        C593   1.480       .  S
C207        C537   1.483       .  S
Zn208       O212   1.925       .  S
Zn208       O213   1.977       .  S
Zn208       O224   1.980       .  S
Zn208      O1257   1.930       .  S
Zn209       O212   1.953       .  S
Zn209       O214   1.995       .  S
Zn209       O216   2.061       .  S
Zn209       O220   2.000       .  S
Zn210       O212   1.985       .  S
Zn210       O215   2.076       .  S
Zn210       O218   2.066       .  S
Zn210       O221   2.049       .  S
Zn211       O212   1.964       .  S
Zn211       O219   1.994       .  S
Zn211       O222   2.013       .  S
Zn211       O223   2.057       .  S
O213        C225   1.267       .  A
O214        C226   1.270       .  A
O215       C1267   1.280       .  A
O216        C225   1.278       .  A
O217      Zn1248   1.933       .  S
O217        C227   1.264   1_556  A
O218        C226   1.279       .  A
O219        C228   1.270       .  A
O220        C229   1.273       .  A
O221        C228   1.278       .  A
O222        C229   1.274       .  A
O223        C230   1.278       .  A
O224        C230   1.268       .  A
C225        C652   1.489       .  S
C226        C915   1.493       .  S
C227       O1255   1.280   1_554  A
C227        C551   1.477       .  S
C228        C509   1.509       .  S
C229        C540   1.492       .  S
C230        C523   1.490       .  S
Zn231       O235   1.965       .  S
Zn231       O236   2.027       .  S
Zn231       O240   1.993       .  S
Zn231       O247   2.055       .  S
Zn232       O235   1.950       .  S
Zn232       O237   1.973       .  S
Zn232       O239   1.987       .  S
Zn232       O243   2.029       .  S
Zn233       O235   1.980       .  S
Zn233       O238   2.040       .  S
Zn233       O241   2.052       .  S
Zn233       O244   2.071       .  S
Zn234       O235   1.917       .  S
Zn234       O245   1.970       .  S
Zn234       O246   1.969       .  S
Zn234      O1282   1.941       .  S
O236        C248   1.275       .  A
O237        C249   1.267       .  A
O238        C250   1.278       .  A
O239        C248   1.271       .  A
O240        C250   1.271       .  A
O241        C249   1.277       .  A
O242      Zn1274   1.929       .  S
O242        C251   1.263       .  A
O243        C252   1.273       .  A
O244       C1291   1.279   1_554  A
O245        C252   1.266       .  A
O246        C253   1.267       .  A
O247        C253   1.278       .  A
C248        C470   1.488       .  S
C249        C481   1.484       .  S
C250        C988   1.485       .  S
C251       O1284   1.279       .  A
C251        C453   1.473       .  S
C252        C498   1.473       .  S
C253        C666   1.487       .  S
Zn254       O258   1.993       .  S
Zn254       O259   2.069       .  S
Zn254       O263   2.071       .  S
Zn254       O270   2.083       .  S
Zn255       O258   1.949       .  S
Zn255       O260   1.988       .  S
Zn255       O262   1.967       .  S
Zn255       O266   2.036       .  S
Zn256       O258   1.955       .  S
Zn256       O261   2.005       .  S
Zn256       O264   2.020       .  S
Zn256       O267   2.072       .  S
Zn257       O258   1.926       .  S
Zn257       O265   1.984       .  S
Zn257       O268   1.974       .  S
Zn257       O269   1.932       .  S
O259        C271   1.279       .  A
O260        C272   1.272       .  A
O261        C273   1.272       .  A
O262        C271   1.266       .  A
O263        C273   1.280       .  A
O264        C272   1.276       .  A
O265        C274   1.268       .  A
O266        C275   1.274       .  A
O267        C274   1.280       .  A
O268        C275   1.266       .  A
O269        C276   1.264       .  A
O270        C276   1.282       .  A
C271        C904   1.489       .  S
C272        C456   1.494       .  S
C273        C425   1.516       .  S
C274        C439   1.490       .  S
C275        C610   1.486       .  S
C276        C467   1.484       .  S
Zn277      O1321   1.957       .  S
Zn277       O282   2.057       .  S
Zn277       O286   2.006       .  S
Zn277       O293   2.004       .  S
Zn278       O281   1.908       .  S
Zn278       O283   1.941       .  S
Zn278       O285   1.963       .  S
Zn278       O289   1.924       .  S
Zn279      O1321   1.948       .  S
Zn279       O284   1.989       .  S
Zn279       O287   2.035       .  S
Zn279       O290   1.970       .  S
Zn280       O281   1.980       .  S
Zn280       O288   2.074       .  S
Zn280       O291   2.098       .  S
Zn280       O292   2.062       .  S
O281      Zn1317   1.959   1_554  S
O281      Zn1319   1.959   1_554  S
O282       C1334   1.277       .  A
O283        C295   1.263       .  A
O284        C296   1.272       .  A
O285        C294   1.264       .  A
O286        C296   1.272       .  A
O287       C1335   1.273       .  A
O288       C1337   1.282   1_554  A
O289        C298   1.262       .  A
O290        C297   1.267       .  A
O291        C298   1.284       .  A
O292       C1339   1.279   1_554  A
O293        C299   1.273       .  A
C294       O1322   1.277   1_554  A
C294        C873   1.507       .  S
C295       O1327   1.277   1_554  A
C295        C495   1.486       .  S
C296        C397   1.494       .  S
C297       O1328   1.279       .  A
C297        C526   1.494       .  S
C298        C414   1.480       .  S
C299       O1332   1.277       .  A
C299        C694   1.483       .  S
Zn300       O304   1.926       .  S
Zn300       O305   1.964       .  S
Zn300       O309   1.979       .  S
Zn300       O316   1.940       .  S
Zn301       O304   1.958       .  S
Zn301       O306   2.007       .  S
Zn301       O308   2.027       .  S
Zn301       O312   1.987       .  S
Zn302       O304   1.944       .  S
Zn302       O307   2.054       .  S
Zn302       O310   1.993       .  S
Zn302       O313   1.987       .  S
Zn303       O304   1.983       .  S
Zn303       O311   2.069       .  S
Zn303       O314   2.087       .  S
Zn303       O315   2.096       .  S
O305        C317   1.266       .  A
O306        C318   1.274       .  A
O307        C319   1.276       .  A
O308        C317   1.272       .  A
O309        C319   1.266       .  A
O310        C318   1.273       .  A
O311        C320   1.280       .  A
O312        C321   1.269       .  A
O313        C320   1.270       .  A
O314        C321   1.283       .  A
O315        C322   1.284       .  A
O316        C322   1.264       .  A
C317        C582   1.473       .  S
C318        C400   1.487       .  S
C319        C761   1.481       .  S
C320        C806   1.508       .  S
C321        C442   1.497       .  S
C322        C411   1.480       .  S
Zn323       O327   1.987       .  S
Zn323       O328   2.086       .  S
Zn323       O332   2.063   1_655  S
Zn323       O339   2.070       .  S
Zn324       O327   1.920       .  S
Zn324       O329   1.968   1_655  S
Zn324       O331   1.939       .  S
Zn324       O335   1.966       .  S
Zn325       O327   1.949   1_455  S
Zn325       O330   1.986       .  S
Zn325       O333   2.050       .  S
Zn325       O336   2.003       .  S
Zn326       O327   1.956       .  S
Zn326       O334   2.012       .  S
Zn326       O337   2.061       .  S
Zn326       O338   1.995       .  S
O328        C340   1.283       .  A
O329        C341   1.265       .  A
O330        C342   1.269       .  A
O331        C340   1.264       .  A
O332        C342   1.278       .  A
O333        C341   1.276       .  A
O334        C343   1.275       .  A
O335        C344   1.266       .  A
O336        C343   1.274   1_455  A
O337        C344   1.278       .  A
O338        C345   1.271       .  A
O339        C345   1.281       .  A
C340        C386   1.478   1_655  S
C341        C859   1.497       .  S
C342        C747   1.504       .  S
C343        C369   1.485       .  S
C344        C484   1.494       .  S
C345        C568   1.498       .  S
Zn346       O350   1.960   1_655  S
Zn346       O351   2.011       .  S
Zn346       O355   1.997       .  S
Zn346       O362   2.054       .  S
Zn347       O350   1.990       .  S
Zn347       O352   2.065       .  S
Zn347       O354   2.072   1_455  S
Zn347       O358   2.091       .  S
Zn348       O350   1.967       .  S
Zn348       O353   2.021       .  S
Zn348       O356   1.996       .  S
Zn348       O359   2.075       .  S
Zn349       O350   1.926       .  S
Zn349       O357   1.979       .  S
Zn349       O360   1.935   1_455  S
Zn349       O361   1.972   1_455  S
O351        C363   1.273       .  A
O352        C364   1.279       .  A
O353        C365   1.277       .  A
O354        C363   1.279       .  A
O355        C365   1.273   1_655  A
O356        C364   1.270       .  A
O357        C366   1.268       .  A
O358        C367   1.283       .  A
O359        C366   1.279       .  A
O360        C367   1.263   1_655  A
O361        C368   1.267       .  A
O362        C368   1.276       .  A
C363        C428   1.498       .  S
C364        C792   1.486       .  S
C365        C372   1.488   1_455  S
C366        C680   1.502       .  S
C367        C383   1.479   1_455  S
C368        C512   1.500       .  S
C369        C370   1.410       .  A
C369        C374   1.419   1_655  A
C370        C371   1.411       .  A
C370        C375   1.452       .  S
C371        C372   1.421       .  A
C371        C378   1.453       .  S
C372        C373   1.410   1_655  A
C373        C374   1.409       .  A
C373        C376   1.452       .  S
C374        C377   1.453       .  S
C375        N382   1.157       .  T
C376        N381   1.157       .  T
C377        N379   1.157       .  T
C378        N380   1.158       .  T
C383        C384   1.416       .  A
C383        C388   1.410   1_655  A
C384       C1425   1.411       .  A
C384        C389   1.451       .  S
C385        C386   1.408   1_655  A
C385       C1424   1.411   1_554  A
C385        C392   1.451       .  S
C386        C387   1.415       .  A
C387       C1428   1.411   1_554  A
C387        C390   1.451       .  S
C388       C1427   1.412       .  A
C388        C391   1.451       .  S
C389        N396   1.157       .  T
C390        N395   1.157       .  T
C391        N393   1.157       .  T
C392        N394   1.157       .  T
C397        C398   1.422       .  A
C397        C402   1.416       .  A
C398        C399   1.410       .  A
C398        C403   1.452       .  S
C399        C400   1.412       .  A
C399        C406   1.454       .  S
C400        C401   1.418       .  A
C401        C402   1.409       .  A
C401        C404   1.454       .  S
C402        C405   1.454       .  S
C403        N410   1.158       .  T
C404        N409   1.158       .  T
C405        N407   1.157       .  T
C406        N408   1.158       .  T
C411        C412   1.415       .  A
C411        C416   1.409       .  A
C412        C413   1.412       .  A
C412        C417   1.449       .  S
C413        C414   1.409       .  A
C413        C420   1.451       .  S
C414        C415   1.417       .  A
C415        C416   1.412       .  A
C415        C418   1.452       .  S
C416        C419   1.451       .  S
C417        N424   1.156       .  T
C418        N423   1.157       .  T
C419        N421   1.157       .  T
C420        N422   1.157       .  T
C425        C426   1.424       .  A
C425        C430   1.426       .  A
C426        C427   1.420       .  A
C426        C431   1.451       .  S
C427        C428   1.413       .  A
C427        C434   1.451       .  S
C428        C429   1.409       .  A
C429        C430   1.414       .  A
C429        C432   1.451       .  S
C430        C433   1.452       .  S
C431        N438   1.158       .  T
C432        N437   1.157       .  T
C433        N435   1.158       .  T
C434        N436   1.157       .  T
C439        C440   1.413       .  A
C439        C444   1.411       .  A
C440        C441   1.415       .  A
C440        C445   1.451       .  S
C441        C442   1.414       .  A
C441        C448   1.449       .  S
C442        C443   1.418       .  A
C443        C444   1.415       .  A
C443        C446   1.449       .  S
C444        C447   1.452       .  S
C445        N452   1.157       .  T
C446        N451   1.156       .  T
C447        N449   1.157       .  T
C448        N450   1.157       .  T
C453        C454   1.404       .  A
C453        C458   1.411       .  A
C454        C455   1.410       .  A
C454        C459   1.450       .  S
C455        C456   1.424       .  A
C455        C462   1.451       .  S
C456        C457   1.418       .  A
C457        C458   1.409       .  A
C457        C460   1.452       .  S
C458        C461   1.453       .  S
C459        N466   1.157       .  T
C460        N465   1.157       .  T
C461        N463   1.157       .  T
C462        N464   1.157       .  T
C467        C468   1.410       .  A
C467        C472   1.417       .  A
C468        C469   1.413       .  A
C468        C473   1.449       .  S
C469        C470   1.420       .  A
C469        C476   1.452       .  S
C470        C471   1.412       .  A
C471        C472   1.407       .  A
C471        C474   1.452       .  S
C472        C475   1.454       .  S
C473        N480   1.157       .  T
C474        N479   1.157       .  T
C475        N477   1.158       .  T
C476        N478   1.158       .  T
C481        C482   1.417       .  A
C481        C486   1.407       .  A
C482        C483   1.412       .  A
C482        C487   1.453       .  S
C483        C484   1.413       .  A
C483        C490   1.451       .  S
C484        C485   1.423       .  A
C485        C486   1.411       .  A
C485        C488   1.453       .  S
C486        C489   1.452       .  S
C487        N494   1.158       .  T
C488        N493   1.158       .  T
C489        N491   1.157       .  T
C490        N492   1.157       .  T
C495        C496   1.414       .  A
C495        C500   1.421       .  A
C496        C497   1.412       .  A
C496       C1541   1.451       .  S
C497        C498   1.412       .  A
C497        C504   1.451       .  S
C498        C499   1.406       .  A
C499        C500   1.406       .  A
C499        C502   1.453       .  S
C500        C503   1.454       .  S
C501       C1536   1.451       .  S
C501        N508   1.157       .  T
C502        N507   1.157       .  T
C503        N505   1.158       .  T
C504        N506   1.157       .  T
C509        C510   1.421       .  A
C509        C514   1.425       .  A
C510        C511   1.413       .  A
C510        C515   1.452       .  S
C511        C512   1.417       .  A
C511        C518   1.454       .  S
C512        C513   1.413       .  A
C513        C514   1.415       .  A
C513        C516   1.451       .  S
C514        C517   1.452       .  S
C515        N522   1.158       .  T
C516        N521   1.157       .  T
C517        N519   1.157       .  T
C518        N520   1.157       .  T
C523        C524   1.412       .  A
C523        C528   1.416       .  A
C524        C525   1.413       .  A
C524        C529   1.451       .  S
C525        C526   1.420       .  A
C525        C532   1.452       .  S
C526        C527   1.415       .  A
C527        C528   1.413       .  A
C527       C1570   1.452       .  S
C528        C531   1.452       .  S
C529        N536   1.157       .  T
C530       C1567   1.453   1_554  S
C530        N535   1.157       .  T
C531        N533   1.157       .  T
C532        N534   1.157       .  T
C537        C538   1.416       .  A
C537        C542   1.408       .  A
C538        C539   1.409       .  A
C538        C543   1.452       .  S
C539        C540   1.413       .  A
C539        C546   1.452       .  S
C540        C541   1.423       .  A
C541        C542   1.413       .  A
C541        C544   1.451       .  S
C542        C545   1.451       .  S
C543        N550   1.157       .  T
C544        N549   1.157       .  T
C545        N547   1.157       .  T
C546        N548   1.157       .  T
C551        C552   1.404       .  A
C551        C556   1.412       .  A
C552        C553   1.412       .  A
C552        C557   1.450       .  S
C553        C554   1.425       .  A
C553        C560   1.452       .  S
C554        C555   1.417       .  A
C555        C556   1.408       .  A
C555        C558   1.452       .  S
C556        C559   1.453       .  S
C557        N564   1.157       .  T
C558        N563   1.158       .  T
C559        N561   1.157       .  T
C560        N562   1.157       .  T
C565        C566   1.418       .  A
C565        C570   1.407       .  A
C566        C567   1.414       .  A
C566        C571   1.451       .  S
C567        C568   1.412       .  A
C567        C574   1.451       .  S
C568        C569   1.423       .  A
C569        C570   1.415       .  A
C569        C572   1.452       .  S
C570        C573   1.450       .  S
C571        N578   1.157       .  T
C572        N577   1.158       .  T
C573        N575   1.157       .  T
C574        N576   1.157       .  T
C579        C580   1.422       .  A
C579        C584   1.413       .  A
C580        C581   1.404       .  A
C580        C585   1.453       .  S
C581        C582   1.406       .  A
C581        C588   1.454       .  S
C582        C583   1.412       .  A
C583        C584   1.412       .  A
C583        C586   1.449       .  S
C584        C587   1.451       .  S
C585        N592   1.157       .  T
C586        N591   1.157       .  T
C587        N589   1.157       .  T
C588        N590   1.157       .  T
C593        C594   1.410       .  A
C593        C598   1.412       .  A
C594        C595   1.409       .  A
C594        C599   1.451       .  S
C595        C596   1.415       .  A
C595        C602   1.452       .  S
C596        C597   1.415       .  A
C597        C598   1.414       .  A
C597        C600   1.451       .  S
C598        C601   1.450       .  S
C599        N606   1.157       .  T
C600        N605   1.158       .  T
C601        N603   1.157       .  T
C602        N604   1.157       .  T
C607        C608   1.422       .  A
C607        C612   1.412       .  A
C608        C609   1.410       .  A
C608        C613   1.452       .  S
C609        C610   1.408       .  A
C609        C616   1.452       .  S
C610        C611   1.419       .  A
C611        C612   1.411       .  A
C611        C614   1.453       .  S
C612        C615   1.452       .  S
C613        N620   1.157       .  T
C614        N619   1.158       .  T
C615        N617   1.157       .  T
C616        N618   1.157       .  T
C621        C622   1.412       .  A
C621        C626   1.410       .  A
C622        C623   1.413       .  A
C622        C627   1.451       .  S
C623        C624   1.413   1_565  A
C623        C630   1.451   1_565  S
C624        C625   1.413   1_545  A
C625        C626   1.412       .  A
C625        C628   1.451       .  S
C626        C629   1.451       .  S
C627        N634   1.157       .  T
C628        N633   1.157       .  T
C629        N631   1.157       .  T
C630        N632   1.157       .  T
C635        C636   1.420   1_565  A
C635        C640   1.408       .  A
C636        C637   1.409       .  A
C636        C641   1.453       .  S
C637        C638   1.408       .  A
C637        C644   1.452       .  S
C638        C639   1.419   1_545  A
C639        C640   1.408       .  A
C639        C642   1.452       .  S
C640        C643   1.452       .  S
C641        N648   1.157       .  T
C642        N647   1.157       .  T
C643        N645   1.157       .  T
C644        N646   1.157       .  T
C649        C650   1.415       .  A
C649        C654   1.426       .  A
C650        C651   1.415       .  A
C650       C1695   1.451       .  S
C651        C652   1.417       .  A
C651        C658   1.452       .  S
C652        C653   1.407       .  A
C653        C654   1.412       .  A
C653        C656   1.452       .  S
C654        C657   1.452       .  S
C655       C1690   1.451       .  S
C655        N662   1.157       .  T
C656        N661   1.157       .  T
C657        N659   1.157       .  T
C658       N1700   1.157       .  T
N660       C1698   1.157       .  T
C663        C664   1.417       .  A
C663        C668   1.406       .  A
C664        C665   1.411       .  A
C664        C669   1.452       .  S
C665        C666   1.410       .  A
C665        C672   1.451       .  S
C666        C667   1.421       .  A
C667        C668   1.411       .  A
C667       C1710   1.453   1_554  S
C668       C1711   1.451   1_554  S
C669        N676   1.157       .  T
C670       C1707   1.452       .  S
C670        N675   1.157       .  T
C671       C1708   1.453       .  S
C671        N673   1.157       .  T
C672        N674   1.157       .  T
C677        C678   1.409       .  A
C677        C682   1.420       .  A
C678        C679   1.413       .  A
C678        C683   1.452       .  S
C679        C680   1.424       .  A
C679        C686   1.452       .  S
C680        C681   1.413       .  A
C681        C682   1.416       .  A
C681        C684   1.450       .  S
C682        C685   1.453       .  S
C683        N690   1.157       .  T
C684        N689   1.157       .  T
C685        N687   1.158       .  T
C686        N688   1.157       .  T
C691        C692   1.414       .  A
C691        C696   1.424       .  A
C692        C693   1.414       .  A
C692        C697   1.450       .  S
C693        C694   1.413       .  A
C693        C700   1.451       .  S
C694        C695   1.405       .  A
C695        C696   1.412       .  A
C695       C1738   1.450       .  S
C696        C699   1.452       .  S
C697        N704   1.157       .  T
C698       C1735   1.454       .  S
C698        N703   1.158   1_556  T
C699        N701   1.157       .  T
C700        N702   1.157       .  T
C705        C706   1.416       .  A
C705        C710   1.412       .  A
C706        C707   1.410       .  A
C706       C1751   1.454       .  S
C707        C708   1.418       .  A
C707        C714   1.453       .  S
C708        C709   1.421       .  A
C709        C710   1.412       .  A
C709        C712   1.451       .  S
C710        C713   1.453       .  S
C711       C1746   1.451   1_554  S
C711        N718   1.157       .  T
C712        N717   1.157       .  T
C713        N715   1.157       .  T
C714        N716   1.158       .  T
C719        C720   1.416       .  A
C719        C724   1.425       .  A
C720        C721   1.409       .  A
C720        C725   1.452       .  S
C721        C722   1.414       .  A
C721        C728   1.454       .  S
C722        C723   1.406       .  A
C723        C724   1.413       .  A
C723        C726   1.451       .  S
C724        C727   1.451       .  S
C725        N732   1.157       .  T
C726        N731   1.157       .  T
C727        N729   1.157       .  T
C728        N730   1.158       .  T
C733        C734   1.405       .  A
C733        C738   1.409       .  A
C734        C735   1.411       .  A
C734        C739   1.452       .  S
C735        C736   1.425       .  A
C735        C742   1.452       .  S
C736        C737   1.418       .  A
C737        C738   1.407       .  A
C737        C740   1.452       .  S
C738        C741   1.453       .  S
C739        N746   1.157       .  T
C740        N745   1.158       .  T
C741        N743   1.157       .  T
C742        N744   1.157       .  T
C747        C748   1.419       .  A
C747        C752   1.422       .  A
C748        C749   1.416       .  A
C748        C753   1.452       .  S
C749        C750   1.417       .  A
C749        C756   1.452       .  S
C750        C751   1.410       .  A
C751        C752   1.413       .  A
C751        C754   1.448       .  S
C752        C755   1.452       .  S
C753        N760   1.158       .  T
C754        N759   1.156       .  T
C755        N757   1.158       .  T
C756        N758   1.158       .  T
C761        C762   1.411       .  A
C761        C766   1.412       .  A
C762        C763   1.413       .  A
C762        C767   1.451       .  S
C763        C764   1.415       .  A
C763        C770   1.452       .  S
C764        C765   1.410       .  A
C765        C766   1.412       .  A
C765        C768   1.448       .  S
C766        C769   1.451       .  S
C767        N774   1.157       .  T
C768        N773   1.157       .  T
C769        N771   1.157       .  T
C770        N772   1.158       .  T
C775        C776   1.410       .  A
C775        C780   1.419       .  A
C776        C777   1.414       .  A
C776        C781   1.451       .  S
C777        C778   1.419       .  A
C777        C784   1.452       .  S
C778        C779   1.411       .  A
C779        C780   1.415       .  A
C779        C782   1.451       .  S
C780        C783   1.452       .  S
C781        N788   1.157       .  T
C782        N787   1.157       .  T
C783        N785   1.158       .  T
C784        N786   1.157       .  T
C789        C790   1.431       .  A
C789        C794   1.422       .  A
C790        C791   1.415       .  A
C790        C795   1.452       .  S
C791        C792   1.404       .  A
C791        C798   1.452       .  S
C792        C793   1.412       .  A
C793        C794   1.417       .  A
C793        C796   1.453       .  S
C794        C797   1.451       .  S
C795        N802   1.158       .  T
C796        N801   1.157       .  T
C797        N799   1.158       .  T
C798        N800   1.157       .  T
C803        C804   1.420       .  A
C803        C808   1.415       .  A
C804        C805   1.416       .  A
C804        C809   1.453       .  S
C805        C806   1.418       .  A
C805        C812   1.451       .  S
C806        C807   1.423       .  A
C807        C808   1.415       .  A
C807        C810   1.453       .  S
C808        C811   1.452       .  S
C809        N816   1.158       .  T
C810        N815   1.158       .  T
C811        N813   1.157       .  T
C812        N814   1.158       .  T
C817        C818   1.414       .  A
C817        C822   1.425       .  A
C818        C819   1.411       .  A
C818        C823   1.451       .  S
C819        C820   1.416       .  A
C819        C826   1.453       .  S
C820        C821   1.406       .  A
C821        C822   1.408       .  A
C821        C824   1.453       .  S
C822        C825   1.453       .  S
C823        N830   1.157       .  T
C824        N829   1.157       .  T
C825        N827   1.157       .  T
C826        N828   1.157       .  T
C831        C832   1.415       .  A
C831        C836   1.405       .  A
C832        C833   1.407       .  A
C832        C837   1.452       .  S
C833        C834   1.407       .  A
C833        C840   1.451       .  S
C834        C835   1.417       .  A
C835        C836   1.408       .  A
C835        C838   1.449       .  S
C836        C839   1.451       .  S
C837        N844   1.157       .  T
C838        N843   1.156       .  T
C839        N841   1.157       .  T
C840        N842   1.157       .  T
C845        C846   1.409       .  A
C845        C850   1.421       .  A
C846        C847   1.412       .  A
C846        C851   1.451       .  S
C847        C848   1.419       .  A
C847        C854   1.452       .  S
C848        C849   1.407       .  A
C849        C850   1.410       .  A
C849        C852   1.451       .  S
C850        C853   1.453       .  S
C851        N858   1.157       .  T
C852        N857   1.157       .  T
C853        N855   1.157       .  T
C854        N856   1.157       .  T
C859        C860   1.415       .  A
C859        C864   1.426       .  A
C860        C861   1.413       .  A
C860        C865   1.452       .  S
C861        C862   1.419       .  A
C861        C868   1.453       .  S
C862        C863   1.406       .  A
C863        C864   1.410       .  A
C863        C866   1.453       .  S
C864        C867   1.452       .  S
C865        N872   1.158       .  T
C866        N871   1.157       .  T
C867        N869   1.157       .  T
C868        N870   1.158       .  T
C873        C874   1.415       .  A
C873        C878   1.428       .  A
C874        C875   1.416       .  A
C874       C1919   1.453   1_554  S
C875        C876   1.426       .  A
C875       C1922   1.453   1_554  S
C876        C877   1.412       .  A
C877        C878   1.413       .  A
C877        C880   1.453       .  S
C878        C881   1.454       .  S
C879       C1914   1.451       .  S
C879        N886   1.157       .  T
C880        N885   1.157       .  T
C881        N883   1.158       .  T
C882       C1915   1.452       .  S
C882        N884   1.158       .  T
C887        C888   1.415       .  A
C887        C892   1.410       .  A
C888        C889   1.421       .  A
C888        C893   1.451       .  S
C889        C890   1.422       .  A
C889        C896   1.450       .  S
C890        C891   1.424       .  A
C891        C892   1.411       .  A
C891        C894   1.453       .  S
C892        C895   1.452       .  S
C893        N900   1.157       .  T
C894        N899   1.157       .  T
C895        N897   1.157       .  T
C896        N898   1.158       .  T
C901        C902   1.409       .  A
C901        C906   1.421       .  A
C902        C903   1.411       .  A
C902        C907   1.450       .  S
C903        C904   1.420       .  A
C903        C910   1.452       .  S
C904        C905   1.408       .  A
C905        C906   1.412       .  A
C905        C908   1.449       .  S
C906        C909   1.453       .  S
C907        N914   1.157       .  T
C908        N913   1.157       .  T
C909        N911   1.158       .  T
C910        N912   1.157       .  T
C915        C916   1.409       .  A
C915        C920   1.419       .  A
C916        C917   1.415       .  A
C916        C921   1.450       .  S
C917        C918   1.420       .  A
C917        C924   1.452       .  S
C918        C919   1.410       .  A
C919        C920   1.416       .  A
C919        C922   1.449       .  S
C920        C923   1.452       .  S
C921        N928   1.157       .  T
C922        N927   1.157       .  T
C923        N925   1.158       .  T
C924        N926   1.157       .  T
C929        C930   1.418       .  A
C929        C934   1.418       .  A
C930        C931   1.412       .  A
C930        C935   1.452       .  S
C931        C932   1.414       .  A
C931        C938   1.452       .  S
C932        C933   1.414       .  A
C933        C934   1.414       .  A
C933        C936   1.451       .  S
C934        C937   1.451       .  S
C935        N942   1.157       .  T
C936        N941   1.157       .  T
C937        N939   1.157       .  T
C938        N940   1.157       .  T
C943        C944   1.413       .  A
C943        C948   1.412       .  A
C944        C945   1.414       .  A
C944        C949   1.451       .  S
C945        C946   1.415       .  A
C945        C952   1.451       .  S
C946        C947   1.415       .  A
C947        C948   1.413       .  A
C947        C950   1.451       .  S
C948        C951   1.451       .  S
C949        N956   1.157       .  T
C950        N955   1.157       .  T
C951        N953   1.157       .  T
C952        N954   1.158       .  T
C957        C958   1.411       .  A
C957        C962   1.422   1_445  A
C958        C959   1.408       .  A
C958        C963   1.452       .  S
C959        C960   1.419   1_545  A
C959        C966   1.454       .  S
C960        C961   1.407   1_455  A
C961        C962   1.411       .  A
C961        C964   1.451       .  S
C962        C965   1.452       .  S
C963        N970   1.157       .  T
C964        N969   1.157       .  T
C965        N967   1.157       .  T
C966        N968   1.157       .  T
C971        C972   1.414   1_565  A
C971        C976   1.408   1_655  A
C972       C2013   1.407   1_554  A
C972        C977   1.453       .  S
C973        C974   1.412       .  A
C973       C2012   1.408       .  A
C973        C980   1.451       .  S
C974        C975   1.420   1_645  A
C975       C2016   1.410       .  A
C975        C978   1.452       .  S
C976       C2015   1.414   1_554  A
C976        C979   1.450       .  S
C977        N984   1.157       .  T
C978        N983   1.157       .  T
C979        N981   1.157       .  T
C980        N982   1.157       .  T
C985        C986   1.410       .  A
C985        C990   1.412       .  A
C986        C987   1.410       .  A
C986        C991   1.449       .  S
C987        C988   1.415       .  A
C987        C994   1.452       .  S
C988        C989   1.415       .  A
C989        C990   1.412       .  A
C989        C992   1.451       .  S
C990        C993   1.451       .  S
C991        N998   1.157       .  T
C992        N997   1.157       .  T
C993        N995   1.157       .  T
C994        N996   1.157       .  T
C999       C1000   1.418       .  A
C999       C1004   1.418       .  A
C1000      C1001   1.410       .  A
C1000      C1005   1.452       .  S
C1001      C1002   1.416       .  A
C1001      C1008   1.453       .  S
C1002      C1003   1.416       .  A
C1003      C1004   1.415       .  A
C1003      C1006   1.452       .  S
C1004      C1007   1.452       .  S
C1005      N1012   1.157       .  T
C1006      N1011   1.158       .  T
C1007      N1009   1.158       .  T
C1008      N1010   1.157       .  T
C1013      C1014   1.429       .  A
C1013      C1018   1.415       .  A
C1014      C1015   1.411       .  A
C1014      C1019   1.453       .  S
C1015      C1016   1.407       .  A
C1015      C1022   1.453       .  S
C1016      C1017   1.421       .  A
C1017      C1018   1.414       .  A
C1017      C1020   1.453       .  S
C1018      C1021   1.452       .  S
C1019      N1026   1.157       .  T
C1020      N1025   1.157       .  T
C1021      N1023   1.157       .  T
C1022      N1024   1.157       .  T
C1027      C1028   1.407       .  A
C1027      C1032   1.412       .  A
C1028      C1029   1.404       .  A
C1028      C1033   1.450       .  S
C1029      C1030   1.419       .  A
C1029      C1036   1.454       .  S
C1030      C1031   1.415       .  A
C1031      C1032   1.414       .  A
C1031      C1034   1.449       .  S
C1032      C1035   1.451       .  S
C1033      N1040   1.156       .  T
C1034      N1039   1.157       .  T
C1035      N1037   1.157       .  T
C1036      N1038   1.158       .  T
Zn1041     O1045   1.950   1_455  S
Zn1041     O1046   2.040       .  S
Zn1041     O1050   1.969   1_545  S
Zn1041     O1057   2.000       .  S
Zn1042     O1045   1.924       .  S
Zn1042     O1047   1.944       .  S
Zn1042     O1049   1.976   1_655  S
Zn1042     O1053   1.985       .  S
Zn1043     O1045   1.985   1_565  S
Zn1043     O1048   2.056   1_655  S
Zn1043     O1051   2.063       .  S
Zn1043     O1054   2.048       .  S
Zn1044     O1045   1.949       .  S
Zn1044     O1052   1.982   1_545  S
Zn1044     O1055   2.044       .  S
Zn1044     O1056   1.998       .  S
O1046      C1058   1.275       .  A
O1047      C1059   1.265   1_545  A
O1048      C1060   1.277       .  A
O1049      C1058   1.268       .  A
O1050      C1060   1.267       .  A
O1051      C1059   1.280       .  A
O1052      C1061   1.269       .  A
O1053      C1062   1.268       .  A
O1054      C1061   1.277       .  A
O1055      C1062   1.275       .  A
O1056      C1063   1.273   1_655  A
O1057      C1063   1.273       .  A
C1058      C2067   1.482       .  S
C1059      C2011   1.481       .  S
C1060      C2056   1.481       .  S
C1061      C2042   1.494       .  S
C1062      C2025   1.479       .  S
C1063      C1997   1.484       .  S
Zn1064     O1068   1.949   1_655  S
Zn1064     O1069   1.976       .  S
Zn1064     O1073   2.001   1_545  S
Zn1064     O1080   2.048       .  S
Zn1065     O1068   1.972       .  S
Zn1065     O1070   2.006   1_545  S
Zn1065     O1072   2.034       .  S
Zn1065     O1076   2.083       .  S
Zn1066     O1068   1.983   1_565  S
Zn1066     O1071   2.076   1_455  S
Zn1066     O1074   2.034       .  S
Zn1066     O1077   2.072       .  S
Zn1067     O1068   1.927   1_655  S
Zn1067     O1075   1.936   1_655  S
Zn1067     O1078   1.981   1_655  S
Zn1067     O1079   1.970       .  S
O1069      C1081   1.271       .  A
O1070      C1082   1.272       .  A
O1071      C1083   1.279       .  A
O1072      C1081   1.278   1_455  A
O1073      C1083   1.270       .  A
O1074      C1082   1.276       .  A
O1075      C1084   1.265   1_545  A
O1076      C1085   1.280       .  A
O1077      C1084   1.281       .  A
O1078      C1085   1.266       .  A
O1079      C1086   1.266       .  A
O1080      C1086   1.276       .  A
C1081      C2014   1.490       .  S
C1082      C1969   1.490       .  S
C1083      C1958   1.500       .  S
C1084      C2000   1.480       .  S
C1085      C1983   1.494       .  S
C1086      C1941   1.476       .  S
Zn1087     O1091   1.953       .  S
Zn1087     O1092   2.057       .  S
Zn1087     O1096   2.003       .  S
Zn1087     O1103   2.007       .  S
Zn1088     O1091   1.910       .  S
Zn1088     O1093   1.910       .  S
Zn1088     O1095   1.959       .  S
Zn1088     O1099   1.957       .  S
Zn1089     O1091   1.980       .  S
Zn1089     O1094   2.065       .  S
Zn1089     O1097   2.088       .  S
Zn1089     O1100   2.060       .  S
Zn1090     O1091   1.956       .  S
Zn1090     O1098   1.981       .  S
Zn1090     O1101   2.046       .  S
Zn1090     O1102   2.001       .  S
O1092      C1104   1.277       .  A
O1093      C1105   1.260       .  A
O1094      C1106   1.279       .  A
O1095      C1104   1.266       .  A
O1096      C1106   1.273       .  A
O1097      C1105   1.282       .  A
O1098      C1107   1.269       .  A
O1099      C1108   1.264       .  A
O1100      C1107   1.280       .  A
O1101      C1108   1.275       .  A
C1104      C2070   1.493       .  S
C1105      C1885   1.483       .  S
C1106      C1927   1.493       .  S
C1107      C1916   1.488       .  S
C1108      C1902   1.479       .  S
C1109      C1874   1.470       .  S
Zn1110     O1114   1.952       .  S
Zn1110     O1115   1.981       .  S
Zn1110     O1119   1.994       .  S
Zn1110     O1126   2.041       .  S
Zn1111     O1114   1.986       .  S
Zn1111     O1116   2.063       .  S
Zn1111     O1118   2.057       .  S
Zn1111     O1122   2.080       .  S
Zn1112     O1114   1.962       .  S
Zn1112     O1117   2.008       .  S
Zn1112     O1120   2.023       .  S
Zn1112     O1123   2.062       .  S
Zn1113     O1114   1.925       .  S
Zn1113     O1121   1.970       .  S
Zn1113     O1124   1.922       .  S
Zn1113     O1125   1.984       .  S
O1115      C1127   1.269       .  A
O1116      C1128   1.279       .  A
O1117      C1129   1.274       .  A
O1118      C1127   1.278       .  A
O1119      C1129   1.273       .  A
O1120      C1128   1.274       .  A
O1121      C1130   1.267       .  A
O1122      C1131   1.282       .  A
O1123      C1130   1.278       .  A
O1124      C1131   1.262       .  A
O1125      C1132   1.268       .  A
O1126      C1132   1.274       .  A
C1127      C1986   1.492       .  S
C1128      C1829   1.503       .  S
C1129      C1871   1.474       .  S
C1130      C1843   1.503       .  S
C1131      C1888   1.479       .  S
C1132      C1860   1.488       .  S
Zn1133     O1137   1.966       .  S
Zn1133     O1138   2.056       .  S
Zn1133     O1142   2.015       .  S
Zn1133     O1149   1.993       .  S
Zn1134     O1137   1.923       .  S
Zn1134     O1139   1.957       .  S
Zn1134     O1141   1.985       .  S
Zn1134     O1145   1.931       .  S
Zn1135     O1137   1.956       .  S
Zn1135     O1140   2.000       .  S
Zn1135     O1143   2.064       .  S
Zn1135     O1146   2.013       .  S
Zn1136     O1137   1.982       .  S
Zn1136     O1144   2.073       .  S
Zn1136     O1147   2.077       .  S
Zn1136     O1148   2.035       .  S
O1138      C1150   1.276       .  A
O1139      C1151   1.265       .  A
O1140      C1152   1.274       .  A
O1141      C1150   1.266       .  A
O1142      C1152   1.275       .  A
O1143      C1151   1.279       .  A
O1144      C1153   1.279       .  A
O1145      C1154   1.264       .  A
O1146      C1153   1.272       .  A
O1147      C1154   1.281       .  A
O1148      C1155   1.277       .  A
O1149      C1155   1.270       .  A
C1150      C1790   1.485       .  S
C1151      C2053   1.486       .  S
C1152      C1759   1.492       .  S
C1153      C1818   1.502       .  S
C1154      C1773   1.484       .  S
C1155      C1804   1.489       .  S
Zn1156     O1160   1.927       .  S
Zn1156     O1161   1.999       .  S
Zn1156     O1165   1.979       .  S
Zn1156     O1172   1.939       .  S
Zn1157     O1160   1.939       .  S
Zn1157     O1162   1.994       .  S
Zn1157     O1164   2.041       .  S
Zn1157     O1168   1.982       .  S
Zn1158     O1160   1.946       .  S
Zn1158     O1163   2.030       .  S
Zn1158     O1166   2.006       .  S
Zn1158     O1169   1.981       .  S
Zn1159     O1160   1.981       .  S
Zn1159     O1167   2.067       .  S
Zn1159     O1170   2.056       .  S
Zn1159     O1171   2.077       .  S
O1161      C1173   1.269       .  A
O1163      C1175   1.275       .  A
O1164      C1173   1.276       .  A
O1165      C1175   1.268       .  A
O1167      C1176   1.279       .  A
O1168      C1177   1.269       .  A
O1169      C1176   1.268       .  A
O1170      C1177   1.279       .  A
O1171      C1178   1.282       .  A
O1172      C1178   1.265       .  A
C1173      C1972   1.484       .  S
C1174      C1776   1.485       .  S
C1175      C1717   1.482       .  S
C1176      C1731   1.507       .  S
C1177      C1748   1.486       .  S
C1178      C1762   1.479       .  S
Zn1179     O1184   1.973   1_565  S
Zn1179     O1188   2.058       .  S
Zn1179     O1195   2.019       .  S
Zn1180     O1183   1.987   1_546  S
Zn1180     O1185   2.094       .  S
Zn1180     O1187   2.060       .  S
Zn1180     O1191   2.084       .  S
Zn1181     O1183   1.919   1_556  S
Zn1181     O1186   1.957       .  S
Zn1181     O1189   1.934       .  S
Zn1181     O1192   1.966       .  S
Zn1182     O1190   2.042       .  S
Zn1182     O1193   1.994   1_565  S
Zn1182     O1194   1.991       .  S
O1184      C1196   1.269       .  A
O1185      C1197   1.283       .  A
O1186      C1198   1.265       .  A
O1189      C1197   1.262   1_565  A
O1192      C1199   1.265       .  A
O1193      C1200   1.269       .  A
O1194      C1201   1.272       .  A
O1195      C1201   1.275       .  A
C1196      C1703   1.491       .  S
C1197      C1664   1.478       .  S
C1198      C1689   1.489       .  S
C1199      C1745   1.475       .  S
C1200      C1930   1.521       .  S
C1201      C1675   1.484       .  S
Zn1202     O1206   1.963       .  S
Zn1202     O1207   2.004       .  S
Zn1202     O1211   2.013   1_565  S
Zn1202     O1218   2.067   1_565  S
Zn1203     O1206   1.991       .  S
Zn1203     O1208   2.072       .  S
Zn1203     O1210   2.082       .  S
Zn1203     O1214   2.095       .  S
Zn1204     O1206   1.964   1_545  S
Zn1204     O1209   2.004       .  S
Zn1204     O1212   1.987   1_545  S
Zn1204     O1215   2.057       .  S
Zn1205     O1206   1.925   1_545  S
Zn1205     O1213   1.974       .  S
Zn1205     O1216   1.934       .  S
Zn1205     O1217   1.962       .  S
O1207      C1219   1.271       .  A
O1208      C1220   1.281       .  A
O1209      C1221   1.273       .  A
O1210      C1219   1.280       .  A
O1211      C1221   1.275       .  A
O1212      C1220   1.270       .  A
O1213      C1222   1.266       .  A
O1214      C1223   1.283       .  A
O1215      C1222   1.276       .  A
O1216      C1223   1.263   1_545  A
O1217      C1224   1.265       .  A
O1218      C1224   1.279       .  A
C1219      C1815   1.498       .  S
C1220      C1636   1.491       .  S
C1221      C1678   1.485       .  S
C1222      C1647   1.496       .  S
C1223      C1661   1.477       .  S
C1224      C1857   1.496       .  S
Zn1225     O1229   1.992       .  S
Zn1225     O1230   2.055       .  S
Zn1225     O1234   2.075       .  S
Zn1225     O1241   2.087       .  S
Zn1226     O1229   1.961       .  S
Zn1226     O1231   2.016       .  S
Zn1226     O1233   1.983       .  S
Zn1226     O1237   2.070       .  S
Zn1227     O1229   1.957       .  S
Zn1227     O1232   1.998       .  S
Zn1227     O1235   1.996       .  S
Zn1227     O1238   2.072       .  S
Zn1228     O1229   1.908       .  S
Zn1228     O1236   1.946       .  S
Zn1228     O1239   1.977       .  S
Zn1228     O1240   1.919       .  S
O1230      C1242   1.278       .  A
O1231      C1243   1.275       .  A
O1232      C1244   1.272       .  A
O1233      C1242   1.270       .  A
O1234      C1244   1.281       .  A
O1235      C1243   1.272       .  A
O1236      C1245   1.264       .  A
O1237      C1246   1.277       .  A
O1238      C1245   1.278       .  A
O1239      C1246   1.265       .  A
O1240      C1247   1.262       .  A
O1241      C1247   1.282       .  A
C1242      C2039   1.497       .  S
C1243      C1594   1.497       .  S
C1244      C1605   1.492       .  S
C1245      C1619   1.496       .  S
C1246      C1633   1.486       .  S
C1247      C1577   1.484       .  S
Zn1248     O1252   1.915       .  S
Zn1248     O1253   1.960       .  S
Zn1248     O1264   1.976       .  S
Zn1249     O1252   1.960       .  S
Zn1249     O1254   2.006       .  S
Zn1249     O1256   2.056       .  S
Zn1249     O1260   1.994       .  S
Zn1250     O1252   1.987       .  S
Zn1250     O1255   2.076       .  S
Zn1250     O1258   2.080       .  S
Zn1250     O1261   2.048       .  S
Zn1251     O1252   1.973       .  S
Zn1251     O1259   1.999       .  S
Zn1251     O1262   2.023       .  S
Zn1251     O1263   2.098       .  S
O1253      C1265   1.266       .  A
O1254      C1266   1.271       .  A
O1256      C1265   1.277       .  A
O1257      C1267   1.263       .  A
O1258      C1266   1.280       .  A
O1259      C1268   1.272       .  A
O1260      C1269   1.273       .  A
O1261      C1268   1.278       .  A
O1262      C1269   1.276       .  A
O1263      C1270   1.281       .  A
O1264      C1270   1.265       .  A
C1265      C1692   1.479       .  S
C1266      C1955   1.499       .  S
C1267      C1591   1.475       .  S
C1268      C1549   1.501       .  S
C1269      C1580   1.487       .  S
C1270      C1563   1.519       .  S
Zn1271     O1275   1.964       .  S
Zn1271     O1276   2.027       .  S
Zn1271     O1280   2.006       .  S
Zn1271     O1287   2.065       .  S
Zn1272     O1275   1.946       .  S
Zn1272     O1277   1.983       .  S
Zn1272     O1279   1.977       .  S
Zn1272     O1283   2.041       .  S
Zn1273     O1275   1.972       .  S
Zn1273     O1278   2.026       .  S
Zn1273     O1281   2.050       .  S
Zn1273     O1284   2.069       .  S
Zn1274     O1275   1.905       .  S
Zn1274     O1285   1.950       .  S
Zn1274     O1286   1.970       .  S
O1276      C1288   1.276       .  A
O1277      C1289   1.269       .  A
O1278      C1290   1.276       .  A
O1279      C1288   1.271       .  A
O1280      C1290   1.272       .  A
O1281      C1289   1.277       .  A
O1282      C1291   1.265   1_554  A
O1283      C1292   1.275       .  A
O1285      C1292   1.265       .  A
O1286      C1293   1.265       .  A
O1287      C1293   1.279       .  A
C1288      C1510   1.492       .  S
C1289      C1521   1.488       .  S
C1290      C2028   1.484       .  S
C1291      C1493   1.482       .  S
C1292      C1538   1.480       .  S
C1293      C1706   1.503       .  S
Zn1294     O1298   1.984       .  S
Zn1294     O1299   2.041       .  S
Zn1294     O1303   2.055       .  S
Zn1294     O1310   2.067       .  S
Zn1295     O1298   1.961       .  S
Zn1295     O1300   2.015       .  S
Zn1295     O1302   1.980       .  S
Zn1295     O1306   2.046       .  S
Zn1296     O1298   1.949       .  S
Zn1296     O1301   2.003       .  S
Zn1296     O1304   2.005       .  S
Zn1296     O1307   2.061       .  S
Zn1297     O1298   1.928       .  S
Zn1297     O1305   1.993       .  S
Zn1297     O1308   1.983       .  S
Zn1297     O1309   1.937       .  S
O1299      C1311   1.276       .  A
O1300      C1312   1.275       .  A
O1301      C1313   1.272       .  A
O1302      C1311   1.268       .  A
O1303      C1313   1.277       .  A
O1304      C1312   1.274       .  A
O1305      C1314   1.269       .  A
O1306      C1315   1.276       .  A
O1307      C1314   1.278       .  A
O1308      C1315   1.268       .  A
O1309      C1316   1.265       .  A
O1310      C1316   1.280       .  A
C1311      C1944   1.479       .  S
C1312      C1496   1.491       .  S
C1313      C1465   1.503       .  S
C1314      C1479   1.490       .  S
C1315      C1650   1.495       .  S
C1316      C1507   1.474       .  S
Zn1317     O1322   2.063       .  S
Zn1317     O1326   2.012       .  S
Zn1317     O1333   1.984       .  S
Zn1318     O1321   1.916       .  S
Zn1318     O1323   1.952       .  S
Zn1318     O1325   1.970       .  S
Zn1318     O1329   1.923       .  S
Zn1319     O1324   1.989       .  S
Zn1319     O1327   2.056       .  S
Zn1319     O1330   2.003       .  S
Zn1320     O1321   1.981       .  S
Zn1320     O1328   2.063       .  S
Zn1320     O1331   2.077       .  S
Zn1320     O1332   2.049       .  S
O1323      C1335   1.264       .  A
O1324      C1336   1.273       .  A
O1325      C1334   1.266       .  A
O1326      C1336   1.275       .  A
O1329      C1338   1.261       .  A
O1330      C1337   1.271       .  A
O1331      C1338   1.281       .  A
O1333      C1339   1.270       .  A
C1334      C1913   1.485       .  S
C1335      C1535   1.471       .  S
C1336      C1437   1.485       .  S
C1337      C1566   1.504       .  S
C1338      C1454   1.474       .  S
C1339      C1734   1.492       .  S
Zn1340     O1344   1.925       .  S
Zn1340     O1345   1.978       .  S
Zn1340     O1349   1.984       .  S
Zn1340     O1356   1.929       .  S
Zn1341     O1344   1.956       .  S
Zn1341     O1346   2.016       .  S
Zn1341     O1348   2.042       .  S
Zn1341     O1352   1.995       .  S
Zn1342     O1344   1.943       .  S
Zn1342     O1347   2.041       .  S
Zn1342     O1350   1.977       .  S
Zn1342     O1353   1.974       .  S
Zn1343     O1344   1.982       .  S
Zn1343     O1351   2.064       .  S
Zn1343     O1354   2.069       .  S
Zn1343     O1355   2.076       .  S
O1345      C1357   1.267       .  A
O1346      C1358   1.276       .  A
O1347      C1359   1.274       .  A
O1348      C1357   1.274       .  A
O1349      C1359   1.268       .  A
O1350      C1358   1.271       .  A
O1351      C1360   1.279       .  A
O1352      C1361   1.270       .  A
O1353      C1360   1.267       .  A
O1354      C1361   1.280       .  A
O1355      C1362   1.282       .  A
O1356      C1362   1.264       .  A
C1357      C1622   1.478       .  S
C1358      C1440   1.482       .  S
C1359      C1801   1.485       .  S
C1360      C1846   1.512       .  S
C1361      C1482   1.495       .  S
C1362      C1451   1.476       .  S
Zn1363     O1367   1.981       .  S
Zn1363     O1368   2.086       .  S
Zn1363     O1372   2.050       .  S
Zn1363     O1379   2.058   1_455  S
Zn1364     O1367   1.916       .  S
Zn1364     O1369   1.960       .  S
Zn1364     O1371   1.941       .  S
Zn1364     O1375   1.961   1_455  S
Zn1365     O1367   1.956       .  S
Zn1365     O1370   1.985       .  S
Zn1365     O1373   2.055       .  S
Zn1365     O1376   2.020       .  S
Zn1366     O1367   1.948   1_655  S
Zn1366     O1374   1.992       .  S
Zn1366     O1377   2.069       .  S
Zn1366     O1378   1.997       .  S
O1368      C1380   1.283       .  A
O1369      C1381   1.264       .  A
O1370      C1382   1.269       .  A
O1371      C1380   1.264       .  A
O1372      C1382   1.277       .  A
O1373      C1381   1.276       .  A
O1374      C1383   1.274   1_655  A
O1375      C1384   1.265       .  A
O1376      C1383   1.276       .  A
O1377      C1384   1.279       .  A
O1378      C1385   1.270       .  A
O1379      C1385   1.279       .  A
C1380      C1426   1.478       .  S
C1381      C1899   1.500       .  S
C1382      C1787   1.487       .  S
C1383      C1409   1.494       .  S
C1384      C1524   1.498       .  S
C1385      C1608   1.497       .  S
Zn1386     O1390   1.957   1_655  S
Zn1386     O1391   2.010       .  S
Zn1386     O1395   2.000       .  S
Zn1386     O1402   2.069       .  S
Zn1387     O1390   1.987       .  S
Zn1387     O1392   2.082       .  S
Zn1387     O1394   2.061   1_455  S
Zn1387     O1398   2.090       .  S
Zn1388     O1390   1.957       .  S
Zn1388     O1393   2.006       .  S
Zn1388     O1396   2.001       .  S
Zn1388     O1399   2.060       .  S
Zn1389     O1390   1.919       .  S
Zn1389     O1397   1.951       .  S
Zn1389     O1400   1.925   1_455  S
Zn1389     O1401   1.971   1_455  S
O1391      C1403   1.273       .  A
O1392      C1404   1.281       .  A
O1393      C1405   1.276   1_455  A
O1394      C1403   1.279       .  A
O1395      C1405   1.274       .  A
O1396      C1404   1.271       .  A
O1397      C1406   1.264       .  A
O1398      C1407   1.283       .  A
O1399      C1406   1.277       .  A
O1400      C1407   1.262   1_655  A
O1401      C1408   1.265       .  A
O1402      C1408   1.277       .  A
C1403      C1468   1.488       .  S
C1404      C1832   1.502       .  S
C1405      C1412   1.491       .  S
C1406      C1720   1.495       .  S
C1407      C1423   1.478   1_455  S
C1408      C1552   1.495       .  S
C1409      C1410   1.415   1_455  A
C1409      C1414   1.422       .  A
C1410      C1411   1.409       .  A
C1410      C1415   1.453       .  S
C1411      C1412   1.420       .  A
C1411      C1418   1.453       .  S
C1412      C1413   1.412   1_655  A
C1413      C1414   1.411       .  A
C1413      C1416   1.453       .  S
C1414      C1417   1.453       .  S
C1415      N1422   1.157       .  T
C1416      N1421   1.157       .  T
C1417      N1419   1.157       .  T
C1418      N1420   1.158       .  T
C1423      C1424   1.417       .  A
C1423      C1428   1.409   1_655  A
C1424      C1429   1.452       .  S
C1425      C1426   1.408   1_655  A
C1425      C1432   1.451       .  S
C1426      C1427   1.415       .  A
C1427      C1430   1.451       .  S
C1428      C1431   1.451       .  S
C1429      N1436   1.157       .  T
C1430      N1435   1.157       .  T
C1431      N1433   1.157       .  T
C1432      N1434   1.157       .  T
C1437      C1438   1.419       .  A
C1437      C1442   1.412       .  A
C1438      C1439   1.410       .  A
C1438      C1443   1.453       .  S
C1439      C1440   1.413       .  A
C1439      C1446   1.453       .  S
C1440      C1441   1.417       .  A
C1441      C1442   1.408       .  A
C1441      C1444   1.453       .  S
C1442      C1445   1.453       .  S
C1443      N1450   1.158       .  T
C1444      N1449   1.157       .  T
C1445      N1447   1.157       .  T
C1446      N1448   1.158       .  T
C1451      C1452   1.409       .  A
C1451      C1456   1.417       .  A
C1452      C1453   1.410       .  A
C1452      C1457   1.451       .  S
C1453      C1454   1.416       .  A
C1453      C1460   1.452       .  S
C1454      C1455   1.407       .  A
C1455      C1456   1.408       .  A
C1455      C1458   1.450       .  S
C1456      C1459   1.453       .  S
C1457      N1464   1.157       .  T
C1458      N1463   1.157       .  T
C1459      N1461   1.157       .  T
C1460      N1462   1.157       .  T
C1465      C1466   1.417       .  A
C1465      C1470   1.425       .  A
C1466      C1467   1.417       .  A
C1466      C1471   1.450       .  S
C1467      C1468   1.414       .  A
C1467      C1474   1.451       .  S
C1468      C1469   1.406       .  A
C1469      C1470   1.413       .  A
C1469      C1472   1.451       .  S
C1470      C1473   1.452       .  S
C1471      N1478   1.158       .  T
C1472      N1477   1.157       .  T
C1473      N1475   1.157       .  T
C1474      N1476   1.157       .  T
C1479      C1480   1.413       .  A
C1479      C1484   1.413       .  A
C1480      C1481   1.415       .  A
C1480      C1485   1.451       .  S
C1481      C1482   1.415       .  A
C1481      C1488   1.449       .  S
C1482      C1483   1.417       .  A
C1483      C1484   1.415       .  A
C1483      C1486   1.450       .  S
C1484      C1487   1.451       .  S
C1485      N1492   1.157       .  T
C1486      N1491   1.157       .  T
C1487      N1489   1.157       .  T
C1488      N1490   1.157       .  T
C1493      C1494   1.415       .  A
C1493      C1498   1.408       .  A
C1494      C1495   1.407       .  A
C1494      C1499   1.453       .  S
C1495      C1496   1.414       .  A
C1495      C1502   1.452       .  S
C1496      C1497   1.423       .  A
C1497      C1498   1.414       .  A
C1497      C1500   1.452       .  S
C1498      C1501   1.451       .  S
C1499      N1506   1.157       .  T
C1500      N1505   1.158       .  T
C1501      N1503   1.157       .  T
C1502      N1504   1.157       .  T
C1507      C1508   1.407       .  A
C1507      C1512   1.411       .  A
C1508      C1509   1.412       .  A
C1508      C1513   1.452       .  S
C1509      C1510   1.423       .  A
C1509      C1516   1.452       .  S
C1510      C1511   1.418       .  A
C1511      C1512   1.407       .  A
C1511      C1514   1.452       .  S
C1512      C1515   1.454       .  S
C1513      N1520   1.157       .  T
C1514      N1519   1.157       .  T
C1515      N1517   1.157       .  T
C1516      N1518   1.157       .  T
C1521      C1522   1.419       .  A
C1521      C1526   1.407       .  A
C1522      C1523   1.413       .  A
C1522      C1527   1.453       .  S
C1523      C1524   1.413       .  A
C1523      C1530   1.451       .  S
C1524      C1525   1.425       .  A
C1525      C1526   1.411       .  A
C1525      C1528   1.454       .  S
C1526      C1529   1.451       .  S
C1527      N1534   1.157       .  T
C1528      N1533   1.158       .  T
C1529      N1531   1.157       .  T
C1530      N1532   1.157       .  T
C1535      C1536   1.413       .  A
C1535      C1540   1.408       .  A
C1536      C1537   1.412       .  A
C1537      C1538   1.413       .  A
C1537      C1544   1.451       .  S
C1538      C1539   1.417       .  A
C1539      C1540   1.403       .  A
C1539      C1542   1.453       .  S
C1540      C1543   1.453       .  S
C1541      N1548   1.157       .  T
C1542      N1547   1.157       .  T
C1543      N1545   1.157       .  T
C1544      N1546   1.158       .  T
C1549      C1550   1.418       .  A
C1549      C1554   1.420       .  A
C1550      C1551   1.414       .  A
C1550      C1555   1.452       .  S
C1551      C1552   1.416       .  A
C1551      C1558   1.453       .  S
C1552      C1553   1.413       .  A
C1553      C1554   1.415       .  A
C1553      C1556   1.451       .  S
C1554      C1557   1.452       .  S
C1555      N1562   1.158       .  T
C1556      N1561   1.158       .  T
C1557      N1559   1.157       .  T
C1558      N1560   1.157       .  T
C1563      C1564   1.418       .  A
C1563      C1568   1.432       .  A
C1564      C1565   1.421       .  A
C1564      C1569   1.451       .  S
C1565      C1566   1.422       .  A
C1565      C1572   1.453       .  S
C1566      C1567   1.408       .  A
C1567      C1568   1.416       .  A
C1568      C1571   1.452   1_556  S
C1569      N1576   1.157       .  T
C1570      N1575   1.158       .  T
C1571      N1573   1.158       .  T
C1572      N1574   1.158       .  T
C1577      C1578   1.419       .  A
C1577      C1582   1.407       .  A
C1578      C1579   1.407       .  A
C1578      C1583   1.452       .  S
C1579      C1580   1.410       .  A
C1579      C1586   1.453       .  S
C1580      C1581   1.421       .  A
C1581      C1582   1.413       .  A
C1581      C1584   1.450       .  S
C1582      C1585   1.450       .  S
C1583      N1590   1.156       .  T
C1584      N1589   1.157       .  T
C1585      N1587   1.157       .  T
C1586      N1588   1.157       .  T
C1591      C1592   1.406       .  A
C1591      C1596   1.412       .  A
C1592      C1593   1.412       .  A
C1592      C1597   1.451       .  S
C1593      C1594   1.424       .  A
C1593      C1600   1.452       .  S
C1594      C1595   1.419       .  A
C1595      C1596   1.409       .  A
C1595      C1598   1.452       .  S
C1596      C1599   1.454       .  S
C1597      N1604   1.157       .  T
C1598      N1603   1.158       .  T
C1599      N1601   1.157       .  T
C1600      N1602   1.158       .  T
C1605      C1606   1.418       .  A
C1605      C1610   1.408       .  A
C1606      C1607   1.414       .  A
C1606      C1611   1.451       .  S
C1607      C1608   1.410       .  A
C1607      C1614   1.451       .  S
C1608      C1609   1.423       .  A
C1609      C1610   1.416       .  A
C1609      C1612   1.452       .  S
C1610      C1613   1.450       .  S
C1611      N1618   1.157       .  T
C1612      N1617   1.157       .  T
C1613      N1615   1.157       .  T
C1614      N1616   1.157       .  T
C1619      C1620   1.423       .  A
C1619      C1624   1.416       .  A
C1620      C1621   1.406       .  A
C1620      C1625   1.453       .  S
C1621      C1622   1.405       .  A
C1621      C1628   1.452       .  S
C1622      C1623   1.413       .  A
C1623      C1624   1.416       .  A
C1623      C1626   1.451       .  S
C1624      C1627   1.450       .  S
C1625      N1632   1.157       .  T
C1626      N1631   1.157       .  T
C1627      N1629   1.157       .  T
C1628      N1630   1.157       .  T
C1633      C1634   1.412       .  A
C1633      C1638   1.411       .  A
C1634      C1635   1.414       .  A
C1634      C1639   1.451       .  S
C1635      C1636   1.415       .  A
C1635      C1642   1.451       .  S
C1636      C1637   1.415       .  A
C1637      C1638   1.414       .  A
C1637      C1640   1.451       .  S
C1638      C1641   1.450       .  S
C1639      N1646   1.157       .  T
C1640      N1645   1.157       .  T
C1641      N1643   1.157       .  T
C1642      N1644   1.157       .  T
C1647      C1648   1.422       .  A
C1647      C1652   1.412       .  A
C1648      C1649   1.412       .  A
C1648      C1653   1.451       .  S
C1649      C1650   1.411       .  A
C1649      C1656   1.452       .  S
C1650      C1651   1.421       .  A
C1651      C1652   1.413       .  A
C1651      C1654   1.453       .  S
C1652      C1655   1.451       .  S
C1653      N1660   1.157       .  T
C1654      N1659   1.158       .  T
C1655      N1657   1.157       .  T
C1656      N1658   1.157       .  T
C1661      C1662   1.412       .  A
C1661      C1666   1.411       .  A
C1662      C1663   1.412       .  A
C1662      C1667   1.451       .  S
C1663      C1664   1.413   1_565  A
C1663      C1670   1.451   1_565  S
C1664      C1665   1.413   1_545  A
C1665      C1666   1.412       .  A
C1665      C1668   1.451       .  S
C1666      C1669   1.451       .  S
C1667      N1674   1.157       .  T
C1668      N1673   1.157       .  T
C1669      N1671   1.157       .  T
C1670      N1672   1.157       .  T
C1675      C1676   1.419   1_565  A
C1675      C1680   1.409       .  A
C1676      C1677   1.408       .  A
C1676      C1681   1.452       .  S
C1677      C1678   1.409       .  A
C1677      C1684   1.452       .  S
C1678      C1679   1.420   1_545  A
C1679      C1680   1.411       .  A
C1679      C1682   1.451       .  S
C1680      C1683   1.452       .  S
C1681      N1688   1.157       .  T
C1682      N1687   1.157       .  T
C1683      N1685   1.157       .  T
C1684      N1686   1.157       .  T
C1689      C1690   1.416       .  A
C1689      C1694   1.418       .  A
C1690      C1691   1.414       .  A
C1691      C1692   1.411       .  A
C1691      C1698   1.450       .  S
C1692      C1693   1.411       .  A
C1693      C1694   1.407       .  A
C1693      C1696   1.454       .  S
C1694      C1697   1.453       .  S
C1695      N1702   1.158       .  T
C1696      N1701   1.157       .  T
C1697      N1699   1.157       .  T
C1703      C1704   1.419       .  A
C1703      C1708   1.407       .  A
C1704      C1705   1.413       .  A
C1704      C1709   1.454       .  S
C1705      C1706   1.415       .  A
C1705      C1712   1.452       .  S
C1706      C1707   1.429       .  A
C1707      C1708   1.413       .  A
C1709      N1716   1.158       .  T
C1710      N1715   1.158       .  T
C1711      N1713   1.157       .  T
C1712      N1714   1.158       .  T
C1717      C1718   1.406       .  A
C1717      C1722   1.417       .  A
C1718      C1719   1.408       .  A
C1718      C1723   1.453       .  S
C1719      C1720   1.426       .  A
C1719      C1726   1.454       .  S
C1720      C1721   1.414       .  A
C1721      C1722   1.413       .  A
C1721      C1724   1.451       .  S
C1722      C1725   1.452       .  S
C1723      N1730   1.157       .  T
C1724      N1729   1.157       .  T
C1725      N1727   1.157       .  T
C1726      N1728   1.158       .  T
C1731      C1732   1.420       .  A
C1731      C1736   1.424       .  A
C1732      C1733   1.417       .  A
C1732      C1737   1.450       .  S
C1733      C1734   1.414       .  A
C1733      C1740   1.452       .  S
C1734      C1735   1.412       .  A
C1735      C1736   1.411       .  A
C1736      C1739   1.454       .  S
C1737      N1744   1.157       .  T
C1738      N1743   1.157       .  T
C1739      N1741   1.158       .  T
C1740      N1742   1.157       .  T
C1745      C1746   1.410       .  A
C1745      C1750   1.408       .  A
C1746      C1747   1.412       .  A
C1747      C1748   1.416       .  A
C1747      C1754   1.451       .  S
C1748      C1749   1.414       .  A
C1749      C1750   1.408       .  A
C1749      C1752   1.445       .  S
C1750      C1753   1.454       .  S
C1751      N1758   1.157       .  T
C1752      N1757   1.155       .  T
C1753      N1755   1.157       .  T
C1754      N1756   1.157       .  T
C1759      C1760   1.414       .  A
C1759      C1764   1.423       .  A
C1760      C1761   1.408       .  A
C1760      C1765   1.452       .  S
C1761      C1762   1.414       .  A
C1761      C1768   1.451       .  S
C1762      C1763   1.408       .  A
C1763      C1764   1.412       .  A
C1763      C1766   1.452       .  S
C1764      C1767   1.452       .  S
C1765      N1772   1.157       .  T
C1766      N1771   1.157       .  T
C1767      N1769   1.157       .  T
C1768      N1770   1.156       .  T
C1773      C1774   1.420       .  A
C1773      C1778   1.408       .  A
C1774      C1775   1.407       .  A
C1774      C1779   1.452       .  S
C1775      C1776   1.407       .  A
C1775      C1782   1.451       .  S
C1776      C1777   1.421       .  A
C1777      C1778   1.412       .  A
C1777      C1780   1.452       .  S
C1778      C1781   1.451       .  S
C1779      N1786   1.157       .  T
C1780      N1785   1.157       .  T
C1781      N1783   1.157       .  T
C1782      N1784   1.157       .  T
C1787      C1788   1.415       .  A
C1787      C1792   1.413       .  A
C1788      C1789   1.414       .  A
C1788      C1793   1.452       .  S
C1789      C1790   1.413       .  A
C1789      C1796   1.450       .  S
C1790      C1791   1.413       .  A
C1791      C1792   1.411       .  A
C1791      C1794   1.451       .  S
C1792      C1795   1.452       .  S
C1793      N1800   1.158       .  T
C1794      N1799   1.157       .  T
C1795      N1797   1.157       .  T
C1796      N1798   1.157       .  T
C1801      C1802   1.411       .  A
C1801      C1806   1.413       .  A
C1802      C1803   1.409       .  A
C1802      C1807   1.450       .  S
C1803      C1804   1.415       .  A
C1803      C1810   1.453       .  S
C1804      C1805   1.417       .  A
C1805      C1806   1.414       .  A
C1805      C1808   1.450       .  S
C1806      C1809   1.452       .  S
C1807      N1814   1.156       .  T
C1808      N1813   1.157       .  T
C1809      N1811   1.157       .  T
C1810      N1812   1.157       .  T
C1815      C1816   1.410       .  A
C1815      C1820   1.419       .  A
C1816      C1817   1.418       .  A
C1816      C1821   1.450       .  S
C1817      C1818   1.422       .  A
C1817      C1824   1.452       .  S
C1818      C1819   1.412       .  A
C1819      C1820   1.418       .  A
C1819      C1822   1.449       .  S
C1820      C1823   1.452       .  S
C1821      N1828   1.157       .  T
C1822      N1827   1.157       .  T
C1823      N1825   1.158       .  T
C1824      N1826   1.157       .  T
C1829      C1830   1.421       .  A
C1829      C1834   1.413       .  A
C1830      C1831   1.418       .  A
C1830      C1835   1.452       .  S
C1831      C1832   1.412       .  A
C1831      C1838   1.450       .  S
C1832      C1833   1.421       .  A
C1833      C1834   1.418       .  A
C1833      C1836   1.453       .  S
C1834      C1837   1.451       .  S
C1835      N1842   1.158       .  T
C1836      N1841   1.158       .  T
C1837      N1839   1.157       .  T
C1838      N1840   1.157       .  T
C1843      C1844   1.420       .  A
C1843      C1848   1.414       .  A
C1844      C1845   1.414       .  A
C1844      C1849   1.454       .  S
C1845      C1846   1.420       .  A
C1845      C1852   1.452       .  S
C1846      C1847   1.428       .  A
C1847      C1848   1.415       .  A
C1847      C1850   1.454       .  S
C1848      C1851   1.453       .  S
C1849      N1856   1.157       .  T
C1850      N1855   1.158       .  T
C1851      N1853   1.158       .  T
C1852      N1854   1.158       .  T
C1857      C1858   1.412       .  A
C1857      C1862   1.424       .  A
C1858      C1859   1.413       .  A
C1858      C1863   1.450       .  S
C1859      C1860   1.418       .  A
C1859      C1866   1.453       .  S
C1860      C1861   1.408       .  A
C1861      C1862   1.411       .  A
C1861      C1864   1.452       .  S
C1862      C1865   1.452       .  S
C1863      N1870   1.157       .  T
C1864      N1869   1.157       .  T
C1865      N1867   1.157       .  T
C1866      N1868   1.158       .  T
C1871      C1872   1.418       .  A
C1871      C1876   1.407       .  A
C1872      C1873   1.407       .  A
C1872      C1877   1.452       .  S
C1873      C1874   1.405       .  A
C1873      C1880   1.451       .  S
C1874      C1875   1.415       .  A
C1875      C1876   1.407       .  A
C1875      C1878   1.452       .  S
C1876      C1879   1.451       .  S
C1877      N1884   1.157       .  T
C1878      N1883   1.157       .  T
C1879      N1881   1.157       .  T
C1880      N1882   1.157       .  T
C1885      C1886   1.408       .  A
C1885      C1890   1.422       .  A
C1886      C1887   1.410       .  A
C1886      C1891   1.450       .  S
C1887      C1888   1.419       .  A
C1887      C1894   1.453       .  S
C1888      C1889   1.407       .  A
C1889      C1890   1.410       .  A
C1889      C1892   1.452       .  S
C1890      C1893   1.454       .  S
C1891      N1898   1.157       .  T
C1892      N1897   1.157       .  T
C1893      N1895   1.158       .  T
C1894      N1896   1.157       .  T
C1899      C1900   1.416       .  A
C1899      C1904   1.430       .  A
C1900      C1901   1.412       .  A
C1900      C1905   1.451       .  S
C1901      C1902   1.415       .  A
C1901      C1908   1.453       .  S
C1902      C1903   1.403       .  A
C1903      C1904   1.409       .  A
C1903      C1906   1.453       .  S
C1904      C1907   1.453       .  S
C1905      N1912   1.158       .  T
C1906      N1911   1.157       .  T
C1907      N1909   1.157       .  T
C1908      N1910   1.158       .  T
C1913      C1914   1.410       .  A
C1913      C1918   1.417       .  A
C1914      C1915   1.413       .  A
C1915      C1916   1.419       .  A
C1916      C1917   1.410       .  A
C1917      C1918   1.410       .  A
C1917      C1920   1.450       .  S
C1918      C1921   1.453       .  S
C1919      N1926   1.158       .  T
C1920      N1925   1.157       .  T
C1921      N1923   1.157       .  T
C1922      N1924   1.158       .  T
C1927      C1928   1.411       .  A
C1927      C1932   1.406       .  A
C1928      C1929   1.420       .  A
C1928      C1933   1.452       .  S
C1929      C1930   1.426       .  A
C1929      C1936   1.450       .  S
C1930      C1931   1.431       .  A
C1931      C1932   1.414       .  A
C1931      C1934   1.452       .  S
C1932      C1935   1.453       .  S
C1933      N1940   1.158       .  T
C1934      N1939   1.158       .  T
C1935      N1937   1.157       .  T
C1936      N1938   1.158       .  T
C1941      C1942   1.410       .  A
C1941      C1946   1.411       .  A
C1942      C1943   1.410       .  A
C1942      C1947   1.450       .  S
C1943      C1944   1.413       .  A
C1943      C1950   1.452       .  S
C1944      C1945   1.412       .  A
C1945      C1946   1.411       .  A
C1945      C1948   1.451       .  S
C1946      C1949   1.451       .  S
C1947      N1954   1.157       .  T
C1948      N1953   1.157       .  T
C1949      N1951   1.157       .  T
C1950      N1952   1.157       .  T
C1955      C1956   1.410       .  A
C1955      C1960   1.420       .  A
C1956      C1957   1.417       .  A
C1956      C1961   1.450       .  S
C1957      C1958   1.421       .  A
C1957      C1964   1.452       .  S
C1958      C1959   1.411       .  A
C1959      C1960   1.418       .  A
C1959      C1962   1.450       .  S
C1960      C1963   1.452       .  S
C1961      N1968   1.157       .  T
C1962      N1967   1.157       .  T
C1963      N1965   1.157       .  T
C1964      N1966   1.157       .  T
C1969      C1970   1.418       .  A
C1969      C1974   1.412       .  A
C1970      C1971   1.415       .  A
C1970      C1975   1.451       .  S
C1971      C1972   1.410       .  A
C1971      C1978   1.450       .  S
C1972      C1973   1.410       .  A
C1973      C1974   1.408       .  A
C1973      C1976   1.448       .  S
C1974      C1977   1.449       .  S
C1975      N1982   1.158       .  T
C1976      N1981   1.155       .  T
C1977      N1979   1.156       .  T
C1978      N1980   1.157       .  T
C1983      C1984   1.416       .  A
C1983      C1988   1.414       .  A
C1984      C1985   1.416       .  A
C1984      C1989   1.449       .  S
C1985      C1986   1.414       .  A
C1985      C1992   1.452       .  S
C1986      C1987   1.414       .  A
C1987      C1988   1.413       .  A
C1987      C1990   1.452       .  S
C1988      C1991   1.449       .  S
C1989      N1996   1.157       .  T
C1990      N1995   1.157       .  T
C1991      N1993   1.156       .  T
C1992      N1994   1.158       .  T
C1997      C1998   1.410       .  A
C1997      C2002   1.422   1_445  A
C1998      C1999   1.407       .  A
C1998      C2003   1.453       .  S
C1999      C2000   1.418   1_545  A
C1999      C2006   1.451       .  S
C2000      C2001   1.406   1_455  A
C2001      C2002   1.410       .  A
C2001      C2004   1.450       .  S
C2002      C2005   1.452       .  S
C2003      N2010   1.158       .  T
C2004      N2009   1.157       .  T
C2005      N2007   1.157       .  T
C2006      N2008   1.157       .  T
C2011      C2012   1.417   1_565  A
C2011      C2016   1.408   1_655  A
C2012      C2017   1.453       .  S
C2013      C2014   1.414       .  A
C2013      C2020   1.453       .  S
C2014      C2015   1.421   1_645  A
C2015      C2018   1.451       .  S
C2016      C2019   1.451       .  S
C2017      N2024   1.157       .  T
C2018      N2023   1.157       .  T
C2019      N2021   1.157       .  T
C2020      N2022   1.157       .  T
C2025      C2026   1.409       .  A
C2025      C2030   1.413       .  A
C2026      C2027   1.411       .  A
C2026      C2031   1.450       .  S
C2027      C2028   1.416       .  A
C2027      C2034   1.452       .  S
C2028      C2029   1.413       .  A
C2029      C2030   1.411       .  A
C2029      C2032   1.451       .  S
C2030      C2033   1.451       .  S
C2031      N2038   1.157       .  T
C2032      N2037   1.157       .  T
C2033      N2035   1.157       .  T
C2034      N2036   1.158       .  T
C2039      C2040   1.418       .  A
C2039      C2044   1.417       .  A
C2040      C2041   1.409       .  A
C2040      C2045   1.453       .  S
C2041      C2042   1.415       .  A
C2041      C2048   1.453       .  S
C2042      C2043   1.417       .  A
C2043      C2044   1.416       .  A
C2043      C2046   1.452       .  S
C2044      C2047   1.451       .  S
C2045      N2052   1.157       .  T
C2046      N2051   1.158       .  T
C2047      N2049   1.158       .  T
C2048      N2050   1.157       .  T
C2053      C2054   1.421       .  A
C2053      C2058   1.409       .  A
C2054      C2055   1.411       .  A
C2054      C2059   1.453       .  S
C2055      C2056   1.407       .  A
C2055      C2062   1.450       .  S
C2056      C2057   1.417       .  A
C2057      C2058   1.410       .  A
C2057      C2060   1.452       .  S
C2058      C2061   1.451       .  S
C2059      N2066   1.158       .  T
C2060      N2065   1.157       .  T
C2061      N2063   1.157       .  T
C2062      N2064   1.157       .  T
C2067      C2068   1.410       .  A
C2067      C2072   1.413       .  A
C2068      C2069   1.408       .  A
C2068      C2073   1.452       .  S
C2069      C2070   1.419       .  A
C2069      C2076   1.453       .  S
C2070      C2071   1.417       .  A
C2071      C2072   1.414       .  A
C2071      C2074   1.449       .  S
C2072      C2075   1.452       .  S
C2073      N2080   1.157       .  T
C2074      N2079   1.157       .  T
C2075      N2077   1.157       .  T
C2076      N2078   1.158       .  T
