geometry optimzed in LAMMPS
_audit_creation_date              2020-11-30 
_audit_creation_method            'lammps2cif' 
_symmetry_space_group_name_H-M    'P1' 
_symmetry_Int_Tables_number       1 
_symmetry_cell_setting            triclinic 
loop_ 
_symmetry_equiv_pos_as_xyz 
  x,y,z 
_cell_length_a                    49.34081283423962 
_cell_length_b                    46.01844315288737 
_cell_length_c                    26.42876015726788 
_cell_angle_alpha                 90.09209085649367 
_cell_angle_beta                  89.83708969564002 
_cell_angle_gamma                 90.01362578348949 
loop_ 
_atom_site_label 
_atom_site_type_symbol 
_atom_site_fract_x 
_atom_site_fract_y 
_atom_site_fract_z 
_atom_site_charge 
Zn1        Zn  0.02532680  0.01697922  0.45023795     1.49720
Zn2        Zn  0.01352661  0.46721128  0.53537331     1.49360
Zn3        Zn  0.48590214  0.03207753  0.53993441     1.49110
Zn4        Zn  0.47282905  0.48598219  0.44957243     1.49480
O5          O  0.99937789  0.00042981  0.49552577    -1.84020
O6          O  0.05899840  0.00074703  0.46996392    -0.74650
O7          O  0.00780126  0.47543188  0.60989407    -0.74470
O8          O  0.50844723  0.06979078  0.53092947    -0.73980
O9          O  0.05500584  0.46543880  0.52682198    -0.74660
O10         O  0.03317217  0.05817360  0.46371736    -0.74260
O11         O  0.49150280  0.02057166  0.61263513    -0.74850
O12         O  0.43972186  0.50308051  0.47056685    -0.74240
O13         O  0.99211838  0.42917024  0.52036477    -0.74990
O14         O  0.44457002  0.03574306  0.53189393    -0.74380
O15         O  0.46408951  0.44482684  0.46080395    -0.74850
O16         O  0.47866428  0.49260583  0.37511183    -0.74760
O17         O  0.02010921  0.01086249  0.37567423    -0.74550
C18         C  0.06943071  0.48260208  0.49993138     0.77240
C19         C  0.99974738  0.99762550  0.63453276     0.77730
C20         C  0.02733687  0.07557381  0.49924708     0.76690
C21         C  0.42970886  0.02038121  0.50272892     0.77070
C22         C  0.47187881  0.42518596  0.49091615     0.78200
C23         C  0.49953067  0.50168034  0.35184703     0.77250
Zn24       Zn  0.26648805  0.46907230  0.53614034     1.49720
Zn25       Zn  0.27491373  0.01732383  0.44701682     1.49360
Zn26       Zn  0.22477322  0.48201733  0.44905582     1.49110
Zn27       Zn  0.23411721  0.03105517  0.53584521     1.49480
O28         O  0.25010136  0.99991365  0.49379221    -1.84020
O29         O  0.30758724  0.46827597  0.52426327    -0.74650
O30         O  0.26887875  0.01107990  0.37278513    -0.74470
O31         O  0.21663799  0.44191598  0.46851065    -0.73980
O32         O  0.30944939  0.00209952  0.46427240    -0.74660
O33         O  0.24491016  0.43024760  0.53036225    -0.74260
O34         O  0.23157208  0.48453542  0.37439831    -0.74850
O35         O  0.19286402  0.03162469  0.52513165    -0.74240
O36         O  0.28170432  0.05867422  0.46067519    -0.74990
O37         O  0.19041846  0.49904424  0.46297770    -0.74380
O38         O  0.25522982  0.06978769  0.52611578    -0.74850
O39         O  0.23903361  0.02114851  0.60945912    -0.74760
O40         O  0.26309977  0.48029639  0.60929606    -0.74550
C41         C  0.32093572  0.48491080  0.49459241     0.77240
C42         C  0.25034594  0.99716894  0.35004512     0.77730
C43         C  0.22432085  0.42454428  0.50266307     0.76690
C44         C  0.17922789  0.01609309  0.49415155     0.77070
C45         C  0.27437270  0.07607464  0.49522086     0.78200
C46         C  0.25142341  0.00095921  0.63275170     0.77250
Zn47       Zn  0.13922056  0.21918620  0.53940669     1.49720
Zn48       Zn  0.09787007  0.23747764  0.45291821     1.49360
Zn49       Zn  0.11047934  0.28217355  0.54117832     1.49110
Zn50       Zn  0.15191693  0.26515854  0.45367980     1.49480
O51         O  0.12480634  0.25097874  0.49897131    -1.84020
O52         O  0.11707300  0.18154524  0.52505585    -0.74650
O53         O  0.06701900  0.26424748  0.45384894    -0.74470
O54         O  0.11524655  0.27200421  0.61513609    -0.73980
O55         O  0.08407769  0.19941128  0.47662351    -0.74660
O56         O  0.13345875  0.22777543  0.61395026    -0.74260
O57         O  0.06898911  0.28063391  0.53219983    -0.74850
O58         O  0.16620517  0.30229957  0.48017506    -0.74240
O59         O  0.10929218  0.23534264  0.38022144    -0.74990
O60         O  0.13325172  0.31983060  0.52951450    -0.74380
O61         O  0.14077352  0.26949402  0.38133752    -0.74850
O62         O  0.18232079  0.23788279  0.45198630    -0.74760
O63         O  0.18073662  0.22079345  0.52997633    -0.74550
C64         C  0.09385546  0.17912897  0.50356866     0.77240
C65         C  0.05529946  0.27072070  0.49498317     0.77730
C66         C  0.12405543  0.24958470  0.63795890     0.76690
C67         C  0.15662950  0.32223442  0.50832089     0.77070
C68         C  0.12495094  0.25278319  0.35710354     0.78200
C69         C  0.19424803  0.23063483  0.49233186     0.77250
Zn70       Zn  0.40186961  0.26355429  0.55520409     1.49720
Zn71       Zn  0.34844699  0.23528966  0.55716526     1.49360
Zn72       Zn  0.36089324  0.27964715  0.46810529     1.49110
Zn73       Zn  0.38979723  0.21647913  0.47053691     1.49480
O74         O  0.37515146  0.24866171  0.51027341    -1.84020
O75         O  0.39021427  0.26848008  0.62707377    -0.74650
O76         O  0.31711881  0.26162437  0.55610474    -0.74470
O77         O  0.38327181  0.31771115  0.47917909    -0.73980
O78         O  0.36054915  0.23273262  0.62954460    -0.74660
O79         O  0.41594465  0.30080277  0.52911470    -0.74260
O80         O  0.31951484  0.27851554  0.47796983    -0.74850
O81         O  0.38514101  0.22501809  0.39591085    -0.74240
O82         O  0.33463687  0.19723204  0.53424203    -0.74990
O83         O  0.36604240  0.26877760  0.39456670    -0.74380
O84         O  0.36698455  0.17896754  0.48434004    -0.74850
O85         O  0.43126472  0.21817564  0.48040624    -0.74760
O86         O  0.43253048  0.23655626  0.55746021    -0.74550
C87         C  0.37582833  0.25074928  0.65222098     0.77240
C88         C  0.30559645  0.26896127  0.51528272     0.77730
C89         C  0.40639847  0.32059084  0.50088410     0.76690
C90         C  0.37556504  0.24660220  0.37171726     0.77070
C91         C  0.34390223  0.17689565  0.50670633     0.78200
C92         C  0.44465062  0.22890203  0.51734694     0.77250
Zn93       Zn  0.48552797  0.46818428  0.03908924     1.49720
Zn94       Zn  0.01200489  0.03287578  0.03564473     1.49360
Zn95       Zn  0.02680148  0.48533905  0.95094717     1.49110
Zn96       Zn  0.47005935  0.01243562  0.94996006     1.49480
O97         O  0.49859614  0.99982464  0.99494861    -1.84020
O98         O  0.49437415  0.47787571  0.11151209    -0.74650
O99         O  0.05421928  0.03358453  0.03242765    -0.74470
O100        O  0.03383139  0.44381357  0.96382647    -0.73980
O101        O  0.00410930  0.02511677  0.10962769    -0.74660
O102        O  0.50521508  0.42912241  0.02348266    -0.74260
O103        O  0.06179175  0.50176282  0.97036391    -0.74850
O104        O  0.47729634  0.00537517  0.87580082    -0.74240
O105        O  0.99079845  0.07084267  0.01798298    -0.74990
O106        O  0.02003357  0.49046847  0.87648962    -0.74380
O107        O  0.46134689  0.05413831  0.96131664    -0.74850
O108        O  0.43557666  0.99446772  0.96932885    -0.74760
O109        O  0.44365371  0.46788221  0.03803814    -0.74550
C110        C  0.49931305  0.00178613  0.13394557     0.77240
C111        C  0.07036191  0.01847092  0.00491934     0.77730
C112        C  0.02522216  0.42428983  0.99362411     0.76690
C113        C  0.49862789  0.99727141  0.85260925     0.77070
C114        C  0.46995120  0.07437329  0.98972553     0.78200
C115        C  0.42731588  0.48012302  0.00725621     0.77250
Zn116      Zn  0.26139652  0.03127978  0.03831840     1.49720
Zn117      Zn  0.23674544  0.46750559  0.03439530     1.49360
Zn118      Zn  0.22210567  0.01152585  0.94833394     1.49110
Zn119      Zn  0.27901882  0.48940794  0.94958156     1.49480
O120        O  0.24987857  0.99986038  0.99373361    -1.84020
O121        O  0.25135800  0.02232401  0.11048834    -0.74650
O122        O  0.19443111  0.47153568  0.03325298    -0.74470
O123        O  0.20851760  0.04981286  0.96916359    -0.73980
O124        O  0.24555157  0.47441208  0.10797206    -0.74660
O125        O  0.24000460  0.06869750  0.02009565    -0.74260
O126        O  0.19234644  0.98353933  0.95323487    -0.74850
O127        O  0.27039363  0.48833948  0.87506577    -0.74240
O128        O  0.25895047  0.43045199  0.01456299    -0.74430
O129        O  0.23215149  0.01305422  0.87553039    -0.74380
O130        O  0.29283629  0.45126275  0.97136403    -0.74850
O131        O  0.30806039  0.51801942  0.95940257    -0.74760
O132        O  0.30335803  0.02825653  0.04011946    -0.74550
C133        C  0.24839526  0.99799606  0.13256102     0.77240
C134        C  0.18086061  0.48129747  0.99577018     0.77730
C135        C  0.21766827  0.07073316  0.99539775     0.76690
C136        C  0.25115357  0.00064219  0.85144780     0.77070
C137        C  0.28276704  0.42961039  0.99452242     0.78200
C138        C  0.31811877  0.01956461  0.00334874     0.77250
Zn139      Zn  0.15093990  0.23246553  0.04087346     1.49720
Zn140      Zn  0.09594019  0.25965596  0.04254036     1.49360
Zn141      Zn  0.13639308  0.27963791  0.95496565     1.49110
Zn142      Zn  0.10897343  0.21588759  0.95348748     1.49480
O143        O  0.12363637  0.24705236  0.99633253    -1.84020
O144        O  0.14614232  0.24005714  0.11535113    -0.74650
O145        O  0.08133709  0.29805880  0.02184405    -0.74470
O146        O  0.17799605  0.28269000  0.96158025    -0.73980
O147        O  0.10654998  0.26228125  0.11503990    -0.74660
O148        O  0.18532287  0.24790859  0.01860607    -0.74260
O149        O  0.11302977  0.31626594  0.97088199    -0.74850
O150        O  0.11504192  0.22514683  0.87948505    -0.74240
O151        O  0.06621434  0.23163269  0.04113090    -0.74990
O152        O  0.13116139  0.27030200  0.88053552    -0.74380
O153        O  0.06783995  0.21798189  0.96093473    -0.74850
O154        O  0.12870062  0.17690557  0.96862057    -0.74760
O155        O  0.15661639  0.19102500  0.03005224    -0.74550
C156        C  0.12685482  0.25245971  0.13881608     0.77240
C157        C  0.09063185  0.31885584  0.99535898     0.77730
C158        C  0.19389976  0.26636774  0.98702550     0.76690
C159        C  0.12325736  0.24782251  0.85653171     0.77070
C160        C  0.05443979  0.22551349  0.00009704     0.78200
C161        C  0.14819460  0.17190515  0.99939167     0.77250
Zn162      Zn  0.40531194  0.23952149  0.05316224     1.49720
Zn163      Zn  0.35249889  0.27041051  0.05727598     1.49360
Zn164      Zn  0.39305804  0.28521194  0.96643059     1.49110
Zn165      Zn  0.36195664  0.22330353  0.96990893     1.49480
O166        O  0.37776103  0.25448059  0.00991207    -1.84020
O167        O  0.39509361  0.23478761  0.12665238    -0.74650
O168        O  0.34441496  0.31096514  0.03841769    -0.74470
O169        O  0.43423812  0.28230380  0.97246462    -0.73980
O170        O  0.36230000  0.26727173  0.13073811    -0.74660
O171        O  0.43483156  0.26829653  0.05201304    -0.74260
O172        O  0.37385579  0.32460378  0.97898695    -0.74850
O173        O  0.36779169  0.23136963  0.89600850    -0.74240
O174        O  0.31725207  0.25155634  0.04939794    -0.74990
O175        O  0.38623832  0.27535428  0.89332181    -0.74380
O176        O  0.32033897  0.22817039  0.97621632    -0.74850
O177        O  0.38301071  0.18432590  0.98277925    -0.74760
O178        O  0.41849098  0.20158676  0.02547863    -0.74550
C179        C  0.37864102  0.25004044  0.15255166     0.77240
C180        C  0.35315534  0.32957189  0.00702153     0.77730
C181        C  0.44716734  0.27285202  0.01071396     0.76690
C182        C  0.37669133  0.25302440  0.87116518     0.77070
C183        C  0.30638327  0.24202964  0.00934462     0.78200
C184        C  0.40713441  0.18131632  0.00045933     0.77250
C185        C  0.23825497  0.28133168  0.01679486    -0.26210
C186        C  0.22330741  0.26662677  0.98032515    -0.14280
C187        C  0.23586074  0.24440461  0.95158184     0.36350
C188        C  0.26291235  0.23682034  0.96092394    -0.25660
C189        C  0.27757748  0.25026468  0.99994770    -0.14900
C190        C  0.26509260  0.27352480  0.02728397     0.37430
N191        N  0.27925691  0.28888160  0.06660452    -0.89150
H192        H  0.22825520  0.29767154  0.03981846     0.18550
H193        H  0.27212838  0.21959571  0.93880041     0.18540
N194        N  0.22108800  0.22828467  0.91430920    -0.88170
H195        H  0.26656579  0.30385695  0.08471194     0.35920
H196        H  0.29440912  0.30113754  0.04927242     0.41010
H197        H  0.21346271  0.24300669  0.88785942     0.40630
H198        H  0.20471394  0.21797047  0.93190694     0.35520
C199        C  0.48326807  0.24038086  0.04118943    -0.26210
C200        C  0.47528240  0.26178047  0.00614898    -0.14280
C201        C  0.49301761  0.26868686  0.96571833     0.36350
C202        C  0.01797032  0.25429343  0.96170876    -0.25660
C203        C  0.02565321  0.23301014  0.99696554    -0.14900
C204        C  0.00783522  0.22580483  0.03664527     0.37430
N205        N  0.01386025  0.20325822  0.07226477    -0.89150
H206        H  0.46988485  0.23389913  0.07174103     0.18550
H207        H  0.03208530  0.26091984  0.93239702     0.18540
N208        N  0.48693391  0.29088697  0.92957492    -0.88170
H209        H  0.53092586  0.20901488  0.09326053     0.35920
H210        H  0.01804938  0.18418700  0.05215384     0.41010
H211        H  0.48256065  0.31012104  0.94906880     0.40630
H212        H  0.97001367  0.28459231  0.90859398     0.35520
C213        C  0.17233349  0.09326139  0.00311656    -0.26210
C214        C  0.20058713  0.09715427  0.99741846    -0.14280
C215        C  0.21084802  0.12553112  0.99059403     0.36350
C216        C  0.19279269  0.14896354  0.99103662    -0.25660
C217        C  0.16461337  0.14510945  0.99672663    -0.14900
C218        C  0.15421173  0.11678238  0.00288200     0.37430
N219        N  0.12590542  0.11103704  0.01120264    -0.89150
H220        H  0.16421103  0.07157844  0.00836809     0.18550
H221        H  0.20093477  0.17066490  0.98596407     0.18540
N222        N  0.23893305  0.13155391  0.98037089    -0.88170
H223        H  0.11889669  0.09884139  0.98049755     0.35920
H224        H  0.11451898  0.13011806  0.01224077     0.41010
H225        H  0.25034025  0.11274656  0.97512242     0.40630
H226        H  0.24682608  0.14254925  0.01168236     0.35520
C227        C  0.30908396  0.35214092  0.98746549    -0.26210
C228        C  0.33647324  0.35595498  0.00076529    -0.14280
C229        C  0.34602733  0.38388917  0.01260352     0.36350
C230        C  0.32791144  0.40753037  0.01065455    -0.25660
C231        C  0.30031504  0.40360165  0.99836585    -0.14900
C232        C  0.29088142  0.37563635  0.98626100     0.37430
N233        N  0.26310433  0.37128097  0.97186014    -0.89150
H234        H  0.30188324  0.33059927  0.97779930     0.18550
H235        H  0.33523374  0.42913266  0.01960794     0.18540
N236        N  0.37374811  0.38802825  0.02754476    -0.88170
H237        H  0.25940553  0.34930519  0.96446840     0.35920
H238        H  0.25998131  0.38235393  0.93785251     0.41010
H239        H  0.37666685  0.37676242  0.06142078     0.40630
H240        H  0.37742108  0.40993617  0.03553313     0.35520
C241        C  0.35442314  0.48598746  0.97517844    -0.26210
C242        C  0.34557198  0.00667039  0.01107485    -0.14280
C243        C  0.36258240  0.01276514  0.05284933     0.36350
C244        C  0.38856433  0.00021064  0.05506314    -0.25660
C245        C  0.39793530  0.48150188  0.01665256    -0.14900
C246        C  0.38025765  0.47344354  0.97756476     0.37430
N247        N  0.38942137  0.45400648  0.93844017    -0.89150
H248        H  0.34134872  0.47993112  0.94404567     0.18550
H249        H  0.40234639  0.00711365  0.08461255     0.18540
N250        N  0.35479968  0.03270678  0.09189324    -0.88170
H251        H  0.37410570  0.45043457  0.91188374     0.35920
H252        H  0.39342123  0.43393236  0.95527573     0.41010
H253        H  0.35003296  0.05264058  0.07521816     0.40630
H254        H  0.33759420  0.02456664  0.11014755     0.35520
C255        C  0.11644231  0.02587019  0.97370202    -0.26210
C256        C  0.09987984  0.01716579  0.01383261    -0.14280
C257        C  0.11070545  0.49800936  0.05074007     0.36350
C258        C  0.13709284  0.48675308  0.04451817    -0.25660
C259        C  0.15287990  0.49355823  0.00181719    -0.14900
C260        C  0.14251513  0.01427013  0.96679623     0.37430
N261        N  0.15813487  0.02330373  0.92354113    -0.89150
H262        H  0.10803001  0.03996235  0.94489533     0.18550
H263        H  0.14488272  0.47173176  0.07245638     0.18540
N264        N  0.09494976  0.48796062  0.09311879    -0.88170
H265        H  0.14897828  0.04094637  0.90548524     0.35920
H266        H  0.15785930  0.00621846  0.89742384     0.41010
H267        H  0.07595690  0.49789487  0.09438181     0.40630
H268        H  0.10498109  0.49445689  0.12604578     0.35520
C269        C  0.46588380  0.12828081  0.97948639    -0.26210
C270        C  0.45379058  0.10166312  0.99143161    -0.14280
C271        C  0.42560505  0.10111559  0.00281657     0.36350
C272        C  0.41056696  0.12704679  0.00377717    -0.25660
C273        C  0.42279546  0.15383607  0.99314727    -0.14900
C274        C  0.45069680  0.15410283  0.97929638     0.37430
N275        N  0.46397727  0.18011050  0.96299741    -0.89150
H276        H  0.48715112  0.12895393  0.96917059     0.18550
H277        H  0.38933358  0.12631181  0.01430914     0.18540
N278        N  0.41184863  0.07462775  0.01532113    -0.88170
H279        H  0.45294862  0.18901070  0.93306876     0.35920
H280        H  0.46403010  0.19481571  0.99289056     0.41010
H281        H  0.42186899  0.06482071  0.04562777     0.40630
H282        H  0.41255196  0.06066362  0.98414911     0.35520
C283        C  0.06937274  0.39862977  0.98872343    -0.26210
C284        C  0.04102486  0.39671477  0.99498178    -0.14280
C285        C  0.02924613  0.36899731  0.00096015     0.36350
C286        C  0.04582251  0.34416363  0.00004944    -0.25660
C287        C  0.07422216  0.34609462  0.99351309    -0.14900
C288        C  0.08595495  0.37392954  0.98809753     0.37430
N289        N  0.11464059  0.37802935  0.98357971    -0.89150
H290        H  0.07891842  0.41973902  0.98483353     0.18550
H291        H  0.03629814  0.32307012  0.00425197     0.18540
N292        N  0.00058320  0.36528181  0.00658747    -0.88170
H293        H  0.12135150  0.36801578  0.95033463     0.35920
H294        H  0.12408396  0.36831173  0.01461758     0.41010
H295        H  0.49099348  0.37491220  0.97562744     0.40630
H296        H  0.49435212  0.37590959  0.03958552     0.35520
C297        C  0.35546808  0.23802366  0.73556563    -0.26210
C298        C  0.37667406  0.25115497  0.70832422    -0.14280
C299        C  0.39814619  0.26452338  0.73513627     0.36350
C300        C  0.39736769  0.26525582  0.78823035    -0.25660
C301        C  0.37614167  0.25220000  0.81527429    -0.14900
C302        C  0.35492368  0.23844136  0.78868298     0.37430
N303        N  0.33261555  0.22549865  0.81559441    -0.89150
H304        H  0.33893903  0.22778301  0.71536109     0.18550
H305        H  0.41381011  0.27548062  0.80873234     0.18540
N306        N  0.42090645  0.27685550  0.70865566    -0.88170
H307        H  0.31884023  0.21610078  0.79041240     0.35920
H308        H  0.32223484  0.24218502  0.83428362     0.41010
H309        H  0.43123283  0.25979970  0.69088712     0.40630
H310        H  0.43458869  0.28625078  0.73401417     0.35520
C311        C  0.39894568  0.23648642  0.28994693    -0.26210
C312        C  0.37571261  0.24609891  0.31573268    -0.14280
C313        C  0.35320273  0.25593419  0.28785359     0.36350
C314        C  0.35468688  0.25677958  0.23479112    -0.25660
C315        C  0.37815804  0.24788701  0.20871310    -0.14900
C316        C  0.40061328  0.23764159  0.23677983     0.37430
N317        N  0.42526234  0.22921861  0.21156504    -0.89150
H318        H  0.41624145  0.22903386  0.31152490     0.18550
H319        H  0.33727126  0.26431980  0.21366991     0.18540
N320        N  0.32879102  0.26469222  0.31353391    -0.88170
H321        H  0.43957348  0.22184559  0.23767094     0.35920
H322        H  0.43349657  0.24784872  0.19491744     0.41010
H323        H  0.32089515  0.24639015  0.33177343     0.40630
H324        H  0.31413507  0.27143023  0.28757461     0.35520
C325        C  0.14746237  0.25306586  0.72037412    -0.26210
C326        C  0.12322767  0.24881230  0.69374307    -0.14280
C327        C  0.09882737  0.24405184  0.72093384     0.36350
C328        C  0.09945849  0.24334846  0.77404037    -0.25660
C329        C  0.12363605  0.24804314  0.80062599    -0.14900
C330        C  0.14788663  0.25291733  0.77362420     0.37430
N331        N  0.17286929  0.25727602  0.80043325    -0.89150
H332        H  0.16609308  0.25666433  0.69947261     0.18550
H333        H  0.08080859  0.23952568  0.79477055     0.18540
N334        N  0.07324204  0.23933096  0.69623890    -0.88170
H335        H  0.18884822  0.26069101  0.77505872     0.35920
H336        H  0.17722700  0.23802361  0.81971971     0.41010
H337        H  0.07508352  0.23954447  0.65690573     0.40630
H338        H  0.06048389  0.25660770  0.70598010     0.35520
C339        C  0.15008277  0.25474465  0.27588390    -0.26210
C340        C  0.12512124  0.25342933  0.30137545    -0.14280
C341        C  0.10082375  0.25314730  0.27341547     0.36350
C342        C  0.10207359  0.25393100  0.22042158    -0.25660
C343        C  0.12704128  0.25424721  0.19470150    -0.14900
C344        C  0.15134589  0.25492813  0.22275726     0.37430
N345        N  0.17713839  0.25594840  0.19737278    -0.89150
H346        H  0.16868941  0.25516966  0.29757567     0.18550
H347        H  0.08337065  0.25339073  0.19904258     0.18540
N348        N  0.07498599  0.25287753  0.29877772    -0.88170
H349        H  0.19297189  0.25603640  0.22358890     0.35920
H350        H  0.17822192  0.27569994  0.17797207     0.41010
H351        H  0.07249832  0.23236866  0.31505941     0.40630
H352        H  0.05922636  0.25510815  0.27270030     0.35520
C353        C  0.23407467  0.25932294  0.46321366    -0.26210
C354        C  0.22337102  0.23841093  0.49686544    -0.14280
C355        C  0.23947125  0.22904917  0.53737680     0.36350
C356        C  0.26543436  0.24082788  0.54391128    -0.25660
C357        C  0.27635737  0.26151284  0.50997892    -0.14900
C358        C  0.26014323  0.27079037  0.46908922     0.37430
N359        N  0.26909545  0.29224290  0.43355373    -0.89150
H360        H  0.22185437  0.26756394  0.43240728     0.18550
H361        H  0.27749263  0.23263658  0.57497041     0.18540
N362        N  0.22983382  0.20723675  0.57157591    -0.88170
H363        H  0.28543212  0.28397069  0.41286503     0.35920
H364        H  0.27522722  0.31074968  0.45347296     0.41010
H365        H  0.23014164  0.21590107  0.60816383     0.40630
H366        H  0.24335391  0.18974652  0.57037061     0.35520
C367        C  0.01601109  0.24146759  0.46554914    -0.26210
C368        C  0.02638099  0.26187842  0.50054844    -0.14280
C369        C  0.01000110  0.26977636  0.54222944     0.36350
C370        C  0.48420849  0.25751255  0.54756151    -0.25660
C371        C  0.47374932  0.23724598  0.51237766    -0.14900
C372        C  0.49022693  0.22918215  0.47089225     0.37430
N373        N  0.48179394  0.20826064  0.43396078    -0.89150
H374        H  0.02828542  0.23423846  0.43388418     0.18550
H375        H  0.47197336  0.26473403  0.57928071     0.18540
N376        N  0.01850204  0.29061957  0.57924315    -0.88170
H377        H  0.96524382  0.21650160  0.41405405     0.35920
H378        H  0.47616337  0.18915683  0.45260542     0.41010
H379        H  0.02410035  0.30976737  0.56070199     0.40630
H380        H  0.53510802  0.28233436  0.59893572     0.35520
C381        C  0.27499609  0.99491106  0.76874194    -0.26210
C382        C  0.25083564  0.00060363  0.79529442    -0.14280
C383        C  0.22682071  0.50635439  0.76773863     0.36350
C384        C  0.22780051  0.50712664  0.71469075    -0.25660
C385        C  0.25187634  0.00127181  0.68846948    -0.14900
C386        C  0.27576519  0.99518474  0.71560090     0.37430
N387        N  0.30077575  0.98982843  0.68910833    -0.89150
H388        H  0.29346713  0.99058928  0.78947777     0.18550
H389        H  0.20944983  0.51144459  0.69354120     0.18540
N390        N  0.20139964  0.51078928  0.79341021    -0.88170
H391        H  0.31644725  0.98564686  0.71463139     0.35920
H392        H  0.30602175  0.00889499  0.66995831     0.41010
H393        H  0.19618181  0.49121892  0.81098878     0.40630
H394        H  0.18595082  0.51526970  0.76756992     0.35520
C395        C  0.22754369  0.00745693  0.26925081    -0.26210
C396        C  0.25021921  0.99618390  0.29444090    -0.14280
C397        C  0.27223145  0.48492136  0.26597093     0.36350
C398        C  0.27093344  0.48539381  0.21302444    -0.25660
C399        C  0.24846930  0.99713475  0.18805702    -0.14900
C400        C  0.22654995  0.00827052  0.21617494     0.37430
N401        N  0.20348230  0.02039541  0.19066395    -0.89150
H402        H  0.21076515  0.01610405  0.29114974     0.18550
H403        H  0.28770642  0.47671121  0.19114806     0.18540
N404        N  0.29569872  0.47203544  0.28905141    -0.88170
H405        H  0.18918798  0.02788989  0.21689253     0.35920
H406        H  0.19417176  0.00363273  0.17038007     0.41010
H407        H  0.29397059  0.47086767  0.32832507     0.40630
H408        H  0.31233497  0.48533582  0.28097576     0.35520
C409        C  0.21852991  0.37123555  0.51965342    -0.26210
C410        C  0.20701058  0.39857308  0.51125499    -0.14280
C411        C  0.17833656  0.40108493  0.50836141     0.36350
C412        C  0.16204580  0.37603205  0.51054297    -0.25660
C413        C  0.17367945  0.34850676  0.51528215    -0.14900
C414        C  0.20216481  0.34612001  0.52147801     0.37430
N415        N  0.21438726  0.31808334  0.52879250    -0.89150
H416        H  0.24035062  0.36932835  0.52271584     0.18550
H417        H  0.14028020  0.37789312  0.50623054     0.18540
N418        N  0.16585334  0.42914070  0.50241294    -0.88170
H419        H  0.23540533  0.32001985  0.53249183     0.35920
H420        H  0.20716632  0.30979644  0.56308579     0.41010
H421        H  0.16994453  0.44125694  0.53500959     0.40630
H422        H  0.14476867  0.42722782  0.50020047     0.35520
C423        C  0.33534420  0.12408839  0.51951310    -0.26210
C424        C  0.32648187  0.15088326  0.50095434    -0.14280
C425        C  0.29967996  0.15345153  0.48217292     0.36350
C426        C  0.28231670  0.12911429  0.48256663    -0.25660
C427        C  0.29115030  0.10242011  0.50155614    -0.14900
C428        C  0.31801090  0.09977047  0.51981178     0.37430
N429        N  0.32746905  0.07239380  0.53922038    -0.89150
H430        H  0.35567083  0.12227847  0.53460939     0.18550
H431        H  0.26207480  0.13078609  0.46704028     0.18540
N432        N  0.29051748  0.18049652  0.46106318    -0.88170
H433        H  0.34722474  0.07437794  0.55303800     0.35920
H434        H  0.32852429  0.05775148  0.50901389     0.41010
H435        H  0.28914024  0.19554621  0.49050697     0.40630
H436        H  0.27090365  0.17833256  0.44664274     0.35520
C437        C  0.47979441  0.48181583  0.71565821    -0.26210
C438        C  0.50028235  0.99698702  0.69010794    -0.14280
C439        C  0.02061065  0.01149499  0.71811677     0.36350
C440        C  0.01960169  0.01077043  0.77107763    -0.25660
C441        C  0.49880291  0.99610580  0.79682081    -0.14900
C442        C  0.47877315  0.48106968  0.76865132     0.37430
N443        N  0.45785378  0.46388687  0.79199531    -0.89150
H444        H  0.46442531  0.47038138  0.69416985     0.18550
H445        H  0.03504383  0.02219970  0.79239061     0.18540
N446        N  0.04243060  0.02721392  0.69441887    -0.88170
H447        H  0.43932750  0.47420548  0.78538239     0.35920
H448        H  0.46027295  0.46221624  0.83104916     0.41010
H449        H  0.04138647  0.02631164  0.65502901     0.40630
H450        H  0.06055552  0.01700080  0.70448532     0.35520
C451        C  0.48386620  0.02151621  0.27033523    -0.26210
C452        C  0.49995110  0.00134348  0.29625827    -0.14280
C453        C  0.01604188  0.48136755  0.26859303     0.36350
C454        C  0.01531904  0.48191541  0.21562148    -0.25660
C455        C  0.49947854  0.00228614  0.18968109    -0.14900
C456        C  0.48359070  0.02232828  0.21716069     0.37430
N457        N  0.46691992  0.04301389  0.19097604    -0.89150
H458        H  0.47156656  0.03673033  0.29172619     0.18550
H459        H  0.02743147  0.46641300  0.19447368     0.18540
N460        N  0.03272497  0.45980648  0.29261507    -0.88170
H461        H  0.45657229  0.05625426  0.21676794     0.35920
H462        H  0.45216467  0.03138418  0.17109750     0.41010
H463        H  0.03112456  0.46049752  0.33195841     0.40630
H464        H  0.05290523  0.46451002  0.28363987     0.35520
C465        C  0.36161314  0.49454765  0.54557744    -0.26210
C466        C  0.35033544  0.48876873  0.49790573    -0.14280
C467        C  0.36435470  0.49780783  0.45398232     0.36350
C468        C  0.38744313  0.01483823  0.45882045    -0.25660
C469        C  0.39998718  0.01902330  0.50589416    -0.14900
C470        C  0.38650308  0.00919012  0.55025903     0.37430
N471        N  0.39744003  0.01294438  0.60022446    -0.89150
H472        H  0.35046533  0.48878958  0.57952274     0.18550
H473        H  0.39777616  0.02156616  0.42446415     0.18540
N474        N  0.35539210  0.49037672  0.40375598    -0.88170
H475        H  0.38342904  0.02509350  0.62116088     0.35920
H476        H  0.41511885  0.02526719  0.59976697     0.41010
H477        H  0.33970440  0.47514830  0.40499294     0.40630
H478        H  0.37138584  0.47962696  0.38564406     0.35520
C479        C  0.13771466  0.00781814  0.54410119    -0.26210
C480        C  0.14965605  0.01329422  0.49679079    -0.14280
C481        C  0.13560862  0.00525625  0.45237562     0.36350
C482        C  0.11182792  0.48924795  0.45635202    -0.25660
C483        C  0.09905620  0.48472826  0.50318475    -0.14900
C484        C  0.11228023  0.49420032  0.54796978     0.37430
N485        N  0.10046273  0.49133798  0.59752609    -0.89150
H486        H  0.14866311  0.01313031  0.57839675     0.18550
H487        H  0.10149529  0.48319302  0.42169283     0.18540
N488        N  0.14520822  0.01268090  0.40251154    -0.88170
H489        H  0.11335663  0.47821661  0.61895282     0.35920
H490        H  0.08190492  0.48060785  0.59651695     0.41010
H491        H  0.16138103  0.02728244  0.40444864     0.40630
H492        H  0.12973768  0.02419125  0.38446021     0.35520
C493        C  0.46762280  0.37099237  0.49292218    -0.26210
C494        C  0.45526173  0.39831697  0.49305797    -0.14280
C495        C  0.42652779  0.40011636  0.49334207     0.36350
C496        C  0.41085937  0.37453480  0.49359097    -0.25660
C497        C  0.42319645  0.34717266  0.49428267    -0.14900
C498        C  0.45193024  0.34540143  0.49266166     0.37430
N499        N  0.46508794  0.31756392  0.49001996    -0.89150
H500        H  0.48954183  0.36962671  0.49183774     0.18550
H501        H  0.38895265  0.37597885  0.49512222     0.18540
N502        N  0.41334114  0.42800728  0.49465380    -0.88170
H503        H  0.48613810  0.32006077  0.48859883     0.35920
H504        H  0.45944682  0.30777321  0.45590697     0.41010
H505        H  0.41830142  0.43798330  0.52898082     0.40630
H506        H  0.39226365  0.42561548  0.49447339     0.35520
C507        C  0.08915781  0.12524680  0.50237697    -0.26210
C508        C  0.07720252  0.15248670  0.50917847    -0.14280
C509        C  0.04878784  0.15429478  0.51692698     0.36350
C510        C  0.03281302  0.12890436  0.51498290    -0.25660
C511        C  0.04459420  0.10184828  0.50472750    -0.14900
C512        C  0.07329757  0.10007056  0.49954584     0.37430
N513        N  0.08709290  0.07296793  0.49200985    -0.89150
H514        H  0.11088809  0.12361834  0.49693579     0.18550
H515        H  0.01104990  0.13035411  0.51998898     0.18540
N516        N  0.03626440  0.18198359  0.52646430    -0.88170
H517        H  0.08171625  0.06430674  0.45690245     0.35920
H518        H  0.08135978  0.05856811  0.52067154     0.41010
H519        H  0.04382293  0.18985391  0.56077043     0.40630
H520        H  0.01533640  0.17961423  0.53126018     0.35520
Zn521      Zn  0.02532678  0.51697922  0.45023797     1.49720
Zn522      Zn  0.01352663  0.96721126  0.53537326     1.49360
Zn523      Zn  0.48590214  0.53207754  0.53993440     1.49110
Zn524      Zn  0.47282905  0.98598219  0.44957244     1.49480
O525        O  0.99937787  0.50042981  0.49552578    -1.84020
O526        O  0.05899839  0.50074703  0.46996395    -0.74650
O527        O  0.00780130  0.97543185  0.60989403    -0.74470
O528        O  0.50844723  0.56979079  0.53092947    -0.73980
O529        O  0.05500585  0.96543878  0.52682192    -0.74660
O530        O  0.03317216  0.55817360  0.46371740    -0.74260
O531        O  0.49150280  0.52057167  0.61263512    -0.74850
O532        O  0.43972186  0.00308051  0.47056685    -0.74240
O533        O  0.99211840  0.92917023  0.52036472    -0.74990
O534        O  0.44457002  0.53574306  0.53189392    -0.74380
O535        O  0.46408951  0.94482684  0.46080396    -0.74850
O536        O  0.47866428  0.99260583  0.37511184    -0.74760
O537        O  0.02010919  0.51086251  0.37567426    -0.74550
C538        C  0.06943072  0.98260207  0.49993134     0.77240
C539        C  0.99974733  0.49762554  0.63453277     0.77730
C540        C  0.02733686  0.57557382  0.49924710     0.76690
C541        C  0.42970886  0.52038121  0.50272891     0.77070
C542        C  0.47187880  0.92518596  0.49091615     0.78200
C543        C  0.49953067  0.00168033  0.35184703     0.77250
Zn544      Zn  0.26648805  0.96907230  0.53614035     1.49720
Zn545      Zn  0.27491371  0.51732383  0.44701682     1.49360
Zn546      Zn  0.22477324  0.98201732  0.44905580     1.49110
Zn547      Zn  0.23411721  0.53105517  0.53584523     1.49480
O548        O  0.25010136  0.49991365  0.49379221    -1.84020
O549        O  0.30758724  0.96827596  0.52426329    -0.74650
O550        O  0.26887873  0.51107989  0.37278514    -0.74470
O551        O  0.21663801  0.94191597  0.46851062    -0.73980
O552        O  0.30944939  0.50209954  0.46427240    -0.74660
O553        O  0.24491016  0.93024760  0.53036226    -0.74260
O554        O  0.23157210  0.98453543  0.37439829    -0.74850
O555        O  0.19286401  0.53162469  0.52513170    -0.74240
O556        O  0.28170430  0.55867423  0.46067516    -0.74990
O557        O  0.19041847  0.99904423  0.46297767    -0.74380
O558        O  0.25522982  0.56978769  0.52611579    -0.74850
O559        O  0.23903363  0.52114851  0.60945914    -0.74760
O560        O  0.26309976  0.98029639  0.60929606    -0.74550
C561        C  0.32093573  0.98491079  0.49459242     0.77240
C562        C  0.25034592  0.49716892  0.35004514     0.77730
C563        C  0.22432085  0.92454427  0.50266306     0.76690
C564        C  0.17922788  0.51609309  0.49415159     0.77070
C565        C  0.27437269  0.57607464  0.49522086     0.78200
C566        C  0.25142343  0.50095921  0.63275171     0.77250
Zn567      Zn  0.13922055  0.71918620  0.53940669     1.49720
Zn568      Zn  0.09787003  0.73747765  0.45291830     1.49360
Zn569      Zn  0.11047934  0.78217355  0.54117839     1.49110
Zn570      Zn  0.15191689  0.76515855  0.45367978     1.49480
O571        O  0.12480632  0.75097875  0.49897135    -1.84020
O572        O  0.11707299  0.68154524  0.52505583    -0.74650
O573        O  0.06701900  0.76424754  0.45384902    -0.74470
O574        O  0.11524654  0.77200419  0.61513615    -0.73980
O575        O  0.08407763  0.69941131  0.47662364    -0.74660
O576        O  0.13345873  0.72777540  0.61395027    -0.74260
O577        O  0.06898911  0.78063393  0.53219993    -0.74850
O578        O  0.16620513  0.80229959  0.48017501    -0.74240
O579        O  0.10929211  0.73534261  0.38022153    -0.74990
O580        O  0.13325173  0.81983060  0.52951458    -0.74380
O581        O  0.14077344  0.76949400  0.38133750    -0.74850
O582        O  0.18232077  0.73788282  0.45198628    -0.74760
O583        O  0.18073661  0.72079346  0.52997631    -0.74550
C584        C  0.09385543  0.67912898  0.50356872     0.77240
C585        C  0.05529945  0.77072073  0.49498325     0.77730
C586        C  0.12405542  0.74958466  0.63795894     0.76690
C587        C  0.15662949  0.82223443  0.50832090     0.77070
C588        C  0.12495085  0.75278316  0.35710358     0.78200
C589        C  0.19424801  0.73063485  0.49233183     0.77250
Zn590      Zn  0.40186960  0.76355429  0.55520405     1.49720
Zn591      Zn  0.34844697  0.73528967  0.55716520     1.49360
Zn592      Zn  0.36089323  0.77964715  0.46810525     1.49110
Zn593      Zn  0.38979722  0.71647913  0.47053686     1.49480
O594        O  0.37515145  0.74866171  0.51027336    -1.84020
O595        O  0.39021425  0.76848008  0.62707374    -0.74650
O596        O  0.31711880  0.76162437  0.55610469    -0.74470
O597        O  0.38327180  0.81771116  0.47917904    -0.73980
O598        O  0.36054913  0.73273262  0.62954454    -0.74660
O599        O  0.41594463  0.80080277  0.52911468    -0.74260
O600        O  0.31951483  0.77851554  0.47796978    -0.74850
O601        O  0.38514099  0.72501810  0.39591080    -0.74240
O602        O  0.33463686  0.69723204  0.53424197    -0.74990
O603        O  0.36604238  0.76877760  0.39456665    -0.74380
O604        O  0.36698454  0.67896755  0.48434000    -0.74850
O605        O  0.43126471  0.71817565  0.48040620    -0.74760
O606        O  0.43253046  0.73655627  0.55746017    -0.74550
C607        C  0.37582830  0.75074928  0.65222094     0.77240
C608        C  0.30559644  0.76896127  0.51528267     0.77730
C609        C  0.40639846  0.82059084  0.50088406     0.76690
C610        C  0.37556502  0.74660220  0.37171721     0.77070
C611        C  0.34390222  0.67689565  0.50670628     0.78200
C612        C  0.44465061  0.72890203  0.51734690     0.77250
Zn613      Zn  0.48552795  0.96818424  0.03908924     1.49720
Zn614      Zn  0.01200511  0.53287601  0.03564488     1.49360
Zn615      Zn  0.02680135  0.98533871  0.95094727     1.49110
Zn616      Zn  0.47005935  0.51243567  0.94996006     1.49480
O617        O  0.49859614  0.49982469  0.99494861    -1.84020
O618        O  0.49437413  0.97787567  0.11151210    -0.74650
O619        O  0.05421949  0.53358461  0.03242782    -0.74470
O620        O  0.03383117  0.94381320  0.96382653    -0.73980
O621        O  0.00410946  0.52511694  0.10962780    -0.74660
O622        O  0.50521507  0.92912237  0.02348266    -0.74260
O623        O  0.06179161  0.00176244  0.97036423    -0.74850
O624        O  0.47729634  0.50537522  0.87580082    -0.74240
O625        O  0.99079878  0.57084299  0.01798326    -0.74990
O626        O  0.02003356  0.99046820  0.87648967    -0.74380
O627        O  0.46134687  0.55413836  0.96131665    -0.74850
O628        O  0.43557667  0.49446774  0.96932887    -0.74760
O629        O  0.44365369  0.96788219  0.03803814    -0.74550
C630        C  0.49931306  0.50178618  0.13394557     0.77240
C631        C  0.07036208  0.51847111  0.00491926     0.77730
C632        C  0.02522192  0.92428949  0.99362421     0.76690
C633        C  0.49862789  0.49727145  0.85260924     0.77070
C634        C  0.46995118  0.57437334  0.98972554     0.78200
C635        C  0.42731586  0.98012300  0.00725620     0.77250
Zn636      Zn  0.26139652  0.53127966  0.03831842     1.49720
Zn637      Zn  0.23674540  0.96750572  0.03439529     1.49360
Zn638      Zn  0.22210570  0.51152570  0.94833395     1.49110
Zn639      Zn  0.27901879  0.98940803  0.94958156     1.49480
O640        O  0.24987861  0.49986026  0.99373362    -1.84020
O641        O  0.25135800  0.52232389  0.11048834    -0.74650
O642        O  0.19443106  0.97153585  0.03325302    -0.74470
O643        O  0.20851759  0.54981268  0.96916366    -0.73980
O644        O  0.24555154  0.97441220  0.10797204    -0.74660
O645        O  0.24000459  0.56869736  0.02009567    -0.74260
O646        O  0.19234653  0.48353911  0.95323481    -0.74850
O647        O  0.27039359  0.98833956  0.87506578    -0.74240
O648        O  0.25895042  0.93045209  0.01456299    -0.74430
O649        O  0.23215153  0.51305415  0.87553041    -0.74380
O650        O  0.29283624  0.95126283  0.97136404    -0.74850
O651        O  0.30806038  0.01801949  0.95940255    -0.74760
O652        O  0.30335803  0.52825645  0.04011949    -0.74550
C653        C  0.24839527  0.49799594  0.13256103     0.77240
C654        C  0.18086053  0.98129766  0.99577026     0.77730
C655        C  0.21766825  0.57073298  0.99539781     0.76690
C656        C  0.25115360  0.50064212  0.85144780     0.77070
C657        C  0.28276699  0.92961048  0.99452244     0.78200
C658        C  0.31811878  0.51956455  0.00334876     0.77250
Zn659      Zn  0.15093969  0.73246525  0.04087352     1.49720
Zn660      Zn  0.09593988  0.75965552  0.04254035     1.49360
Zn661      Zn  0.13639285  0.77963761  0.95496579     1.49110
Zn662      Zn  0.10897331  0.71588725  0.95348741     1.49480
O663        O  0.12363614  0.74705203  0.99633257    -1.84020
O664        O  0.14614211  0.74005696  0.11535115    -0.74650
O665        O  0.08133675  0.79805837  0.02184407    -0.74470
O666        O  0.17799581  0.78268976  0.96158041    -0.73980
O667        O  0.10654965  0.76228081  0.11503991    -0.74660
O668        O  0.18532267  0.74790828  0.01860609    -0.74260
O669        O  0.11302949  0.81626559  0.97088219    -0.74850
O670        O  0.11504186  0.72514655  0.87948501    -0.74240
O671        O  0.06621406  0.73163218  0.04113070    -0.74990
O672        O  0.13116119  0.77030176  0.88053563    -0.74380
O673        O  0.06783983  0.71798146  0.96093449    -0.74850
O674        O  0.12870054  0.67690528  0.96862054    -0.74760
O675        O  0.15661619  0.69102471  0.03005243    -0.74550
C676        C  0.12685456  0.75245943  0.13881610     0.77240
C677        C  0.09063154  0.81885545  0.99535910     0.77730
C678        C  0.19389954  0.76636748  0.98702558     0.76690
C679        C  0.12325724  0.74782228  0.85653174     0.77070
C680        C  0.05443959  0.72551300  0.00009674     0.78200
C681        C  0.14819447  0.67190487  0.99939177     0.77250
Zn682      Zn  0.40531186  0.73952148  0.05316216     1.49720
Zn683      Zn  0.35249880  0.77041055  0.05727593     1.49360
Zn684      Zn  0.39305795  0.78521195  0.96643054     1.49110
Zn685      Zn  0.36195653  0.72330354  0.96990889     1.49480
O686        O  0.37776093  0.75448061  0.00991202    -1.84020
O687        O  0.39509353  0.73478763  0.12665232    -0.74650
O688        O  0.34441489  0.81096520  0.03841769    -0.74470
O689        O  0.43423804  0.78230378  0.97246453    -0.73980
O690        O  0.36229990  0.76727171  0.13073807    -0.74660
O691        O  0.43483150  0.76829649  0.05201294    -0.74260
O692        O  0.37385571  0.82460381  0.97898690    -0.74850
O693        O  0.36779157  0.73136966  0.89600845    -0.74240
O694        O  0.31725195  0.75155647  0.04939780    -0.74990
O695        O  0.38623823  0.77535429  0.89332177    -0.74380
O696        O  0.32033885  0.72817037  0.97621631    -0.74850
O697        O  0.38301061  0.68432590  0.98277916    -0.74760
O698        O  0.41849088  0.70158675  0.02547855    -0.74550
C699        C  0.37864093  0.75004044  0.15255160     0.77240
C700        C  0.35315527  0.82957194  0.00702151     0.77730
C701        C  0.44716727  0.77285198  0.01071385     0.76690
C702        C  0.37669122  0.75302442  0.87116514     0.77070
C703        C  0.30638314  0.74202966  0.00934456     0.78200
C704        C  0.40713431  0.68131631  0.00045924     0.77250
C705        C  0.23825476  0.78133154  0.01679482    -0.26210
C706        C  0.22330719  0.76662654  0.98032522    -0.14280
C707        C  0.23586055  0.74440436  0.95158198     0.36350
C708        C  0.26291219  0.73682017  0.96092403    -0.25660
C709        C  0.27757733  0.75026462  0.99994767    -0.14900
C710        C  0.26509241  0.77352475  0.02728387     0.37430
N711        N  0.27925673  0.78888167  0.06660427    -0.89150
H712        H  0.22825497  0.79767141  0.03981836     0.18550
H713        H  0.27212824  0.71959553  0.93880056     0.18540
N714        N  0.22108783  0.72828434  0.91430942    -0.88170
H715        H  0.26656560  0.80385704  0.08471163     0.35920
H716        H  0.29440892  0.80113759  0.04927205     0.41010
H717        H  0.21346250  0.74300631  0.88785960     0.40630
H718        H  0.20471379  0.71797014  0.93190723     0.35520
C719        C  0.48326796  0.74038069  0.04118911    -0.26210
C720        C  0.47528231  0.76178040  0.00614880    -0.14280
C721        C  0.49301756  0.76868687  0.96571825     0.36350
C722        C  0.01797028  0.75429313  0.96170843    -0.25660
C723        C  0.02565303  0.73300968  0.99696503    -0.14900
C724        C  0.00783491  0.72580426  0.03664450     0.37430
N725        N  0.01385979  0.70325747  0.07226375    -0.89150
H726        H  0.46988471  0.73389889  0.07174062     0.18550
H727        H  0.03208535  0.76091959  0.93239687     0.18540
N728        N  0.48693388  0.79088707  0.92957499    -0.88170
H729        H  0.53092573  0.70901461  0.09326010     0.35920
H730        H  0.01804886  0.68418631  0.05215260     0.41010
H731        H  0.48256061  0.81012110  0.94906899     0.40630
H732        H  0.97001384  0.78459249  0.90859379     0.35520
C733        C  0.17233345  0.59326116  0.00311665    -0.26210
C734        C  0.20058708  0.59715407  0.99741856    -0.14280
C735        C  0.21084794  0.62553094  0.99059417     0.36350
C736        C  0.19279258  0.64896333  0.99103679    -0.25660
C737        C  0.16461327  0.64510920  0.99672676    -0.14900
C738        C  0.15421166  0.61678211  0.00288209     0.37430
N739        N  0.12590535  0.61103674  0.01120270    -0.89150
H740        H  0.16421101  0.57157819  0.00836817     0.18550
H741        H  0.20093464  0.67066471  0.98596426     0.18540
N742        N  0.23893297  0.63155377  0.98037104    -0.88170
H743        H  0.11889665  0.59884109  0.98049759     0.35920
H744        H  0.11451890  0.63011775  0.01224083     0.41010
H745        H  0.25034018  0.61274644  0.97512251     0.40630
H746        H  0.24682599  0.64254909  0.01168252     0.35520
C747        C  0.30908391  0.85214100  0.98746542    -0.26210
C748        C  0.33647318  0.85595504  0.00076527    -0.14280
C749        C  0.34602726  0.88388923  0.01260356     0.36350
C750        C  0.32791138  0.90753044  0.01065460    -0.25660
C751        C  0.30031498  0.90360173  0.99836587    -0.14900
C752        C  0.29088137  0.87563643  0.98626096     0.37430
N753        N  0.26310428  0.87128107  0.97186004    -0.89150
H754        H  0.30188319  0.83059936  0.97779917     0.18550
H755        H  0.33523368  0.92913272  0.01960803     0.18540
N756        N  0.37374804  0.88802830  0.02754482    -0.88170
H757        H  0.25940548  0.84930530  0.96446826     0.35920
H758        H  0.25998127  0.88235405  0.93785243     0.41010
H759        H  0.37666677  0.87676246  0.06142083     0.40630
H760        H  0.37742101  0.90993622  0.03553323     0.35520
C761        C  0.35442312  0.98598750  0.97517842    -0.26210
C762        C  0.34557200  0.50667034  0.01107487    -0.14280
C763        C  0.36258241  0.51276510  0.05284934     0.36350
C764        C  0.38856434  0.50021062  0.05506315    -0.25660
C765        C  0.39793528  0.98150189  0.01665255    -0.14900
C766        C  0.38025762  0.97344356  0.97756475     0.37430
N767        N  0.38942133  0.95400649  0.93844016    -0.89150
H768        H  0.34134870  0.97993117  0.94404565     0.18550
H769        H  0.40234640  0.50711364  0.08461257     0.18540
N770        N  0.35479968  0.53270674  0.09189326    -0.88170
H771        H  0.37410566  0.95043459  0.91188372     0.35920
H772        H  0.39342118  0.93393237  0.95527573     0.41010
H773        H  0.35003294  0.55264053  0.07521818     0.40630
H774        H  0.33759420  0.52456659  0.11014757     0.35520
C775        C  0.11644251  0.52587022  0.97370196    -0.26210
C776        C  0.09988001  0.51716584  0.01383253    -0.14280
C777        C  0.11070535  0.99800940  0.05074021     0.36350
C778        C  0.13709278  0.98675320  0.04451832    -0.25660
C779        C  0.15287980  0.99355836  0.00181730    -0.14900
C780        C  0.14251529  0.51427005  0.96679615     0.37430
N781        N  0.15813506  0.52330361  0.92354105    -0.89150
H782        H  0.10803027  0.53996243  0.94489532     0.18550
H783        H  0.14488270  0.97173193  0.07245657     0.18540
N784        N  0.09494971  0.98796069  0.09311902    -0.88170
H785        H  0.14897851  0.54094627  0.90548515     0.35920
H786        H  0.15785945  0.50621834  0.89742377     0.41010
H787        H  0.07595683  0.99789490  0.09438202     0.40630
H788        H  0.10498105  0.99445704  0.12604595     0.35520
C789        C  0.46588370  0.62828084  0.97948608    -0.26210
C790        C  0.45379055  0.60166316  0.99143164    -0.14280
C791        C  0.42560505  0.60111562  0.00281687     0.36350
C792        C  0.41056693  0.62704679  0.00377741    -0.25660
C793        C  0.42279536  0.65383607  0.99314717    -0.14900
C794        C  0.45069666  0.65410283  0.97929599     0.37430
N795        N  0.46397703  0.68011049  0.96299663    -0.89150
H796        H  0.48715098  0.62895397  0.96917005     0.18550
H797        H  0.38933358  0.62631181  0.01430960     0.18540
N798        N  0.41184871  0.57462778  0.01532174    -0.88170
H799        H  0.45294828  0.68901054  0.93306796     0.35920
H800        H  0.46402989  0.69481582  0.99288960     0.41010
H801        H  0.42186916  0.56482084  0.04562837     0.40630
H802        H  0.41255199  0.56066358  0.98414982     0.35520
C803        C  0.06937246  0.89862938  0.98872349    -0.26210
C804        C  0.04102459  0.89671441  0.99498190    -0.14280
C805        C  0.02924584  0.86899696  0.00096036     0.36350
C806        C  0.04582220  0.84416327  0.00004966    -0.25660
C807        C  0.07422186  0.84609423  0.99351325    -0.14900
C808        C  0.08595466  0.87392914  0.98809760     0.37430
N809        N  0.11464029  0.87802894  0.98357970    -0.89150
H810        H  0.07891816  0.91973862  0.98483352     0.18550
H811        H  0.03629783  0.82306977  0.00425226     0.18540
N812        N  0.00058291  0.86528150  0.00658776    -0.88170
H813        H  0.12135118  0.86801536  0.95033461     0.35920
H814        H  0.12408369  0.86831133  0.01461756     0.41010
H815        H  0.49099350  0.87491215  0.97562750     0.40630
H816        H  0.49435215  0.87590955  0.03958558     0.35520
C817        C  0.35546802  0.73802366  0.73556557    -0.26210
C818        C  0.37667402  0.75115497  0.70832418    -0.14280
C819        C  0.39814613  0.76452339  0.73513625     0.36350
C820        C  0.39736761  0.76525584  0.78823033    -0.25660
C821        C  0.37614158  0.75220002  0.81527425    -0.14900
C822        C  0.35492361  0.73844137  0.78868292     0.37430
N823        N  0.33261546  0.72549867  0.81559432    -0.89150
H824        H  0.33893898  0.72778301  0.71536101     0.18550
H825        H  0.41381002  0.77548064  0.80873233     0.18540
N826        N  0.42090639  0.77685551  0.70865567    -0.88170
H827        H  0.31884016  0.71610079  0.79041230     0.35920
H828        H  0.32223474  0.74218503  0.83428351     0.41010
H829        H  0.43123278  0.75979972  0.69088715     0.40630
H830        H  0.43458863  0.78625080  0.73401419     0.35520
C831        C  0.39894564  0.73648642  0.28994686    -0.26210
C832        C  0.37571257  0.74609890  0.31573263    -0.14280
C833        C  0.35320268  0.75593417  0.28785356     0.36350
C834        C  0.35468682  0.75677956  0.23479109    -0.25660
C835        C  0.37815797  0.74788700  0.20871304    -0.14900
C836        C  0.40061322  0.73764160  0.23677976     0.37430
N837        N  0.42526228  0.72921862  0.21156494    -0.89150
H838        H  0.41624142  0.72903388  0.31152481     0.18550
H839        H  0.33727118  0.76431978  0.21366990     0.18540
N840        N  0.32879098  0.76469220  0.31353390    -0.88170
H841        H  0.43957342  0.72184560  0.23767083     0.35920
H842        H  0.43349649  0.74784874  0.19491734     0.41010
H843        H  0.32089512  0.74639012  0.33177344     0.40630
H844        H  0.31413501  0.77143020  0.28757462     0.35520
C845        C  0.14746230  0.75306582  0.72037421    -0.26210
C846        C  0.12322763  0.74881223  0.69374310    -0.14280
C847        C  0.09882733  0.74405168  0.72093382     0.36350
C848        C  0.09945842  0.74334824  0.77404035    -0.25660
C849        C  0.12363596  0.74804296  0.80062603    -0.14900
C850        C  0.14788654  0.75291724  0.77362429     0.37430
N851        N  0.17286918  0.75727596  0.80043339    -0.89150
H852        H  0.16609302  0.75666436  0.69947274     0.18550
H853        H  0.08080852  0.73952540  0.79477049     0.18540
N854        N  0.07324202  0.73933076  0.69623883    -0.88170
H855        H  0.18884812  0.76069102  0.77505890     0.35920
H856        H  0.17722693  0.73802354  0.81971979     0.41010
H857        H  0.07508351  0.73954433  0.65690566     0.40630
H858        H  0.06048383  0.75660746  0.70598006     0.35520
C859        C  0.15008261  0.75474462  0.27588386    -0.26210
C860        C  0.12512110  0.75342928  0.30137548    -0.14280
C861        C  0.10082359  0.75314716  0.27341557     0.36350
C862        C  0.10207339  0.75393080  0.22042166    -0.25660
C863        C  0.12704105  0.75424702  0.19470151    -0.14900
C864        C  0.15134569  0.75492804  0.22275721     0.37430
N865        N  0.17713817  0.75594834  0.19737266    -0.89150
H866        H  0.16868927  0.75516969  0.29757556     0.18550
H867        H  0.08337043  0.75339046  0.19904272     0.18540
N868        N  0.07498585  0.75287738  0.29877788    -0.88170
H869        H  0.19297169  0.75603642  0.22358873     0.35920
H870        H  0.17822163  0.77569986  0.17797188     0.41010
H871        H  0.07249822  0.73236852  0.31505964     0.40630
H872        H  0.05922620  0.75510795  0.27270051     0.35520
C873        C  0.23407465  0.75932294  0.46321362    -0.26210
C874        C  0.22337100  0.73841094  0.49686540    -0.14280
C875        C  0.23947124  0.72904917  0.53737676     0.36350
C876        C  0.26543435  0.74082788  0.54391123    -0.25660
C877        C  0.27635736  0.76151285  0.50997887    -0.14900
C878        C  0.26014322  0.77079037  0.46908917     0.37430
N879        N  0.26909544  0.79224290  0.43355367    -0.89150
H880        H  0.22185435  0.76756395  0.43240724     0.18550
H881        H  0.27749262  0.73263658  0.57497035     0.18540
N882        N  0.22983381  0.70723676  0.57157587    -0.88170
H883        H  0.28543211  0.78397068  0.41286498     0.35920
H884        H  0.27522721  0.81074968  0.45347290     0.41010
H885        H  0.23014163  0.71590108  0.60816379     0.40630
H886        H  0.24335389  0.68974653  0.57037057     0.35520
C887        C  0.01601111  0.74146761  0.46554921    -0.26210
C888        C  0.02638099  0.76187844  0.50054852    -0.14280
C889        C  0.01000110  0.76977637  0.54222950     0.36350
C890        C  0.48420848  0.75751256  0.54756150    -0.25660
C891        C  0.47374931  0.73724599  0.51237764    -0.14900
C892        C  0.49022693  0.72918214  0.47089225     0.37430
N893        N  0.48179395  0.70826064  0.43396077    -0.89150
H894        H  0.02828545  0.73423848  0.43388426     0.18550
H895        H  0.47197334  0.76473405  0.57928069     0.18540
N896        N  0.01850201  0.79061959  0.57924321    -0.88170
H897        H  0.96524386  0.71650159  0.41405409     0.35920
H898        H  0.47616337  0.68915683  0.45260542     0.41010
H899        H  0.02410032  0.80976739  0.56070204     0.40630
H900        H  0.53510800  0.78233437  0.59893573     0.35520
C901        C  0.27499613  0.49491103  0.76874193    -0.26210
C902        C  0.25083568  0.50060359  0.79529442    -0.14280
C903        C  0.22682067  0.00635441  0.76773861     0.36350
C904        C  0.22780048  0.00712665  0.71469073    -0.25660
C905        C  0.25187636  0.50127180  0.68846949    -0.14900
C906        C  0.27576522  0.49518472  0.71560089     0.37430
N907        N  0.30077578  0.48982842  0.68910831    -0.89150
H908        H  0.29346716  0.49058923  0.78947776     0.18550
H909        H  0.20944981  0.01144460  0.69354117     0.18540
N910        N  0.20139960  0.01078931  0.79341018    -0.88170
H911        H  0.31644728  0.48564683  0.71463136     0.35920
H912        H  0.30602177  0.50889498  0.66995830     0.41010
H913        H  0.19618177  0.99121896  0.81098877     0.40630
H914        H  0.18595078  0.01526971  0.76756988     0.35520
C915        C  0.22754370  0.50745691  0.26925080    -0.26210
C916        C  0.25021920  0.49618386  0.29444092    -0.14280
C917        C  0.27223148  0.98492145  0.26597089     0.36350
C918        C  0.27093347  0.98539393  0.21302440    -0.25660
C919        C  0.24846929  0.49713464  0.18805704    -0.14900
C920        C  0.22654995  0.50827047  0.21617493     0.37430
N921        N  0.20348233  0.52039539  0.19066392    -0.89150
H922        H  0.21076516  0.51610407  0.29114971     0.18550
H923        H  0.28770646  0.97671138  0.19114800     0.18540
N924        N  0.29569876  0.97203556  0.28905134    -0.88170
H925        H  0.18918801  0.52788991  0.21689248     0.35920
H926        H  0.19417176  0.50363272  0.17038006     0.41010
H927        H  0.29397064  0.97086774  0.32832500     0.40630
H928        H  0.31233500  0.98533597  0.28097573     0.35520
C929        C  0.21852991  0.87123554  0.51965340    -0.26210
C930        C  0.20701059  0.89857307  0.51125498    -0.14280
C931        C  0.17833657  0.90108493  0.50836141     0.36350
C932        C  0.16204580  0.87603206  0.51054298    -0.25660
C933        C  0.17367944  0.84850676  0.51528215    -0.14900
C934        C  0.20216480  0.84612000  0.52147799     0.37430
N935        N  0.21438725  0.81808333  0.52879246    -0.89150
H936        H  0.24035062  0.86932833  0.52271581     0.18550
H937        H  0.14028020  0.87789314  0.50623055     0.18540
N938        N  0.16585335  0.92914071  0.50241295    -0.88170
H939        H  0.23540532  0.82001983  0.53249179     0.35920
H940        H  0.20716631  0.80979643  0.56308576     0.41010
H941        H  0.16994455  0.94125695  0.53500960     0.40630
H942        H  0.14476868  0.92722783  0.50020048     0.35520
C943        C  0.33534418  0.62408840  0.51951308    -0.26210
C944        C  0.32648186  0.65088326  0.50095430    -0.14280
C945        C  0.29967995  0.65345153  0.48217287     0.36350
C946        C  0.28231669  0.62911429  0.48256659    -0.25660
C947        C  0.29115028  0.60242012  0.50155612    -0.14900
C948        C  0.31801089  0.59977047  0.51981177     0.37430
N949        N  0.32746903  0.57239381  0.53922039    -0.89150
H950        H  0.35567082  0.62227848  0.53460938     0.18550
H951        H  0.26207479  0.63078609  0.46704023     0.18540
N952        N  0.29051748  0.68049652  0.46106312    -0.88170
H953        H  0.34722472  0.57437795  0.55303801     0.35920
H954        H  0.32852427  0.55775148  0.50901391     0.41010
H955        H  0.28914024  0.69554621  0.49050689     0.40630
H956        H  0.27090365  0.67833255  0.44664268     0.35520
C957        C  0.47979439  0.98181585  0.71565820    -0.26210
C958        C  0.50028235  0.49698703  0.69010793    -0.14280
C959        C  0.02061062  0.51149507  0.71811672     0.36350
C960        C  0.01960167  0.51077059  0.77107757    -0.25660
C961        C  0.49880290  0.49610584  0.79682081    -0.14900
C962        C  0.47877314  0.98106968  0.76865131     0.37430
N963        N  0.45785374  0.96388689  0.79199529    -0.89150
H964        H  0.46442527  0.97038141  0.69416984     0.18550
H965        H  0.03504383  0.52219986  0.79239050     0.18540
N966        N  0.04243060  0.52721394  0.69441875    -0.88170
H967        H  0.43932748  0.97420553  0.78538240     0.35920
H968        H  0.46027292  0.96221623  0.83104914     0.41010
H969        H  0.04138647  0.52631161  0.65502889     0.40630
H970        H  0.06055550  0.51700081  0.70448525     0.35520
C971        C  0.48386619  0.52151622  0.27033523    -0.26210
C972        C  0.49995110  0.50134350  0.29625827    -0.14280
C973        C  0.01604188  0.98136750  0.26859302     0.36350
C974        C  0.01531901  0.98191533  0.21562147    -0.25660
C975        C  0.49947855  0.50228618  0.18968109    -0.14900
C976        C  0.48359069  0.52232829  0.21716069     0.37430
N977        N  0.46691989  0.54301389  0.19097605    -0.89150
H978        H  0.47156652  0.53673032  0.29172620     0.18550
H979        H  0.02743143  0.96641290  0.19447368     0.18540
N980        N  0.03272499  0.95980645  0.29261507    -0.88170
H981        H  0.45657224  0.55625424  0.21676795     0.35920
H982        H  0.45216466  0.53138417  0.17109749     0.41010
H983        H  0.03112460  0.96049752  0.33195842     0.40630
H984        H  0.05290523  0.96450998  0.28363983     0.35520
C985        C  0.36161315  0.99454765  0.54557746    -0.26210
C986        C  0.35033544  0.98876872  0.49790574    -0.14280
C987        C  0.36435471  0.99780781  0.45398234     0.36350
C988        C  0.38744312  0.51483825  0.45882044    -0.25660
C989        C  0.39998718  0.51902330  0.50589416    -0.14900
C990        C  0.38650309  0.50919011  0.55025902     0.37430
N991        N  0.39744004  0.51294435  0.60022445    -0.89150
H992        H  0.35046533  0.98878959  0.57952275     0.18550
H993        H  0.39777616  0.52156618  0.42446415     0.18540
N994        N  0.35539211  0.99037668  0.40375600    -0.88170
H995        H  0.38342905  0.52509348  0.62116089     0.35920
H996        H  0.41511886  0.52526716  0.59976696     0.41010
H997        H  0.33970441  0.97514827  0.40499297     0.40630
H998        H  0.37138585  0.97962692  0.38564409     0.35520
C999        C  0.13771465  0.50781814  0.54410124    -0.26210
C1000       C  0.14965604  0.51329422  0.49679084    -0.14280
C1001       C  0.13560860  0.50525627  0.45237567     0.36350
C1002       C  0.11182794  0.98924794  0.45635197    -0.25660
C1003       C  0.09905621  0.98472825  0.50318470    -0.14900
C1004       C  0.11228024  0.99420032  0.54796973     0.37430
N1005       N  0.10046274  0.99133799  0.59752604    -0.89150
H1006       H  0.14866310  0.51313031  0.57839680     0.18550
H1007       H  0.10149531  0.98319300  0.42169279     0.18540
N1008       N  0.14520820  0.51268092  0.40251159    -0.88170
H1009       H  0.11335664  0.97821662  0.61895278     0.35920
H1010       H  0.08190493  0.98060785  0.59651690     0.41010
H1011       H  0.16138101  0.52728246  0.40444869     0.40630
H1012       H  0.12973766  0.52419127  0.38446027     0.35520
C1013       C  0.46762280  0.87099237  0.49292218    -0.26210
C1014       C  0.45526173  0.89831697  0.49305797    -0.14280
C1015       C  0.42652778  0.90011636  0.49334207     0.36350
C1016       C  0.41085936  0.87453480  0.49359095    -0.25660
C1017       C  0.42319644  0.84717267  0.49428265    -0.14900
C1018       C  0.45193023  0.84540143  0.49266165     0.37430
N1019       N  0.46508793  0.81756392  0.49001994    -0.89150
H1020       H  0.48954183  0.86962671  0.49183774     0.18550
H1021       H  0.38895264  0.87597886  0.49512220     0.18540
N1022       N  0.41334114  0.92800729  0.49465380    -0.88170
H1023       H  0.48613809  0.82006077  0.48859882     0.35920
H1024       H  0.45944681  0.80777321  0.45590695     0.41010
H1025       H  0.41830141  0.93798330  0.52898082     0.40630
H1026       H  0.39226364  0.92561549  0.49447338     0.35520
C1027       C  0.08915779  0.62524681  0.50237700    -0.26210
C1028       C  0.07720249  0.65248671  0.50917852    -0.14280
C1029       C  0.04878782  0.65429479  0.51692705     0.36350
C1030       C  0.03281300  0.62890436  0.51498296    -0.25660
C1031       C  0.04459418  0.60184829  0.50472753    -0.14900
C1032       C  0.07329755  0.60007057  0.49954587     0.37430
N1033       N  0.08709289  0.57296795  0.49200985    -0.89150
H1034       H  0.11088807  0.62361836  0.49693581     0.18550
H1035       H  0.01104988  0.63035410  0.51998905     0.18540
N1036       N  0.03626437  0.68198359  0.52646440    -0.88170
H1037       H  0.08171624  0.56430676  0.45690246     0.35920
H1038       H  0.08135977  0.55856812  0.52067154     0.41010
H1039       H  0.04382291  0.68985390  0.56077053     0.40630
H1040       H  0.01533637  0.67961422  0.53126030     0.35520
Zn1041     Zn  0.52532680  0.01697921  0.45023798     1.49720
Zn1042     Zn  0.51352662  0.46721128  0.53537331     1.49360
Zn1043     Zn  0.98590216  0.03207752  0.53993440     1.49110
Zn1044     Zn  0.97282904  0.48598219  0.44957243     1.49480
O1045       O  0.49937788  0.00042981  0.49552579    -1.84020
O1046       O  0.55899840  0.00074702  0.46996396    -0.74650
O1047       O  0.50780128  0.47543188  0.60989407    -0.74470
O1048       O  0.00844724  0.06979078  0.53092947    -0.73980
O1049       O  0.55500584  0.46543879  0.52682198    -0.74660
O1050       O  0.53317217  0.05817359  0.46371738    -0.74260
O1051       O  0.99150282  0.02057164  0.61263512    -0.74850
O1052       O  0.93972185  0.50308050  0.47056685    -0.74240
O1053       O  0.49211839  0.42917024  0.52036477    -0.74990
O1054       O  0.94457003  0.03574305  0.53189393    -0.74380
O1055       O  0.96408950  0.44482684  0.46080396    -0.74850
O1056       O  0.97866427  0.49260583  0.37511183    -0.74760
O1057       O  0.52010921  0.01086248  0.37567426    -0.74550
C1058       C  0.56943071  0.48260207  0.49993138     0.77240
C1059       C  0.49974736  0.99762553  0.63453278     0.77730
C1060       C  0.52733686  0.07557381  0.49924709     0.76690
C1061       C  0.92970887  0.02038120  0.50272891     0.77070
C1062       C  0.97187880  0.42518596  0.49091616     0.78200
C1063       C  0.99953066  0.50168034  0.35184702     0.77250
Zn1064     Zn  0.76648804  0.46907230  0.53614033     1.49720
Zn1065     Zn  0.77491372  0.01732383  0.44701684     1.49360
Zn1066     Zn  0.72477322  0.48201733  0.44905580     1.49110
Zn1067     Zn  0.73411721  0.03105517  0.53584524     1.49480
O1068       O  0.75010136  0.99991365  0.49379223    -1.84020
O1069       O  0.80758723  0.46827596  0.52426327    -0.74650
O1070       O  0.76887875  0.01107989  0.37278516    -0.74470
O1071       O  0.71663800  0.44191597  0.46851063    -0.73980
O1072       O  0.80944939  0.00209954  0.46427242    -0.74660
O1073       O  0.74491016  0.43024760  0.53036225    -0.74260
O1074       O  0.73157209  0.48453543  0.37439829    -0.74850
O1075       O  0.69286402  0.03162467  0.52513170    -0.74240
O1076       O  0.78170430  0.05867422  0.46067518    -0.74990
O1077       O  0.69041846  0.49904423  0.46297768    -0.74380
O1078       O  0.75522981  0.06978770  0.52611578    -0.74850
O1079       O  0.73903364  0.02114851  0.60945914    -0.74760
O1080       O  0.76309976  0.48029639  0.60929605    -0.74550
C1081       C  0.82093572  0.48491079  0.49459241     0.77240
C1082       C  0.75034594  0.99716893  0.35004515     0.77730
C1083       C  0.72432084  0.42454428  0.50266306     0.76690
C1084       C  0.67922788  0.01609308  0.49415159     0.77070
C1085       C  0.77437269  0.07607464  0.49522086     0.78200
C1086       C  0.75142344  0.00095922  0.63275172     0.77250
Zn1087     Zn  0.63922054  0.21918620  0.53940669     1.49720
Zn1088     Zn  0.59787004  0.23747765  0.45291826     1.49360
Zn1089     Zn  0.61047933  0.28217355  0.54117837     1.49110
Zn1090     Zn  0.65191690  0.26515854  0.45367979     1.49480
O1091       O  0.62480632  0.25097875  0.49897133    -1.84020
O1092       O  0.61707299  0.18154524  0.52505581    -0.74650
O1093       O  0.56701899  0.26424752  0.45384898    -0.74470
O1094       O  0.61524653  0.27200419  0.61513613    -0.73980
O1095       O  0.58407765  0.19941130  0.47662357    -0.74660
O1096       O  0.63345871  0.22777540  0.61395027    -0.74260
O1097       O  0.56898910  0.28063393  0.53219988    -0.74850
O1098       O  0.66620514  0.30229958  0.48017504    -0.74240
O1099       O  0.60929213  0.23534263  0.38022148    -0.74990
O1100       O  0.63325172  0.31983060  0.52951455    -0.74380
O1101       O  0.64077347  0.26949401  0.38133750    -0.74850
O1102       O  0.68232077  0.23788280  0.45198630    -0.74760
O1103       O  0.68073660  0.22079346  0.52997633    -0.74550
C1104       C  0.59385544  0.17912898  0.50356867     0.77240
C1105       C  0.55529945  0.27072073  0.49498321     0.77730
C1106       C  0.62405539  0.24958466  0.63795892     0.76690
C1107       C  0.65662949  0.32223443  0.50832090     0.77070
C1108       C  0.62495087  0.25278318  0.35710356     0.78200
C1109       C  0.69424801  0.23063484  0.49233185     0.77250
Zn1110     Zn  0.90186959  0.26355429  0.55520409     1.49720
Zn1111     Zn  0.84844696  0.23528967  0.55716521     1.49360
Zn1112     Zn  0.86089322  0.27964717  0.46810529     1.49110
Zn1113     Zn  0.88979720  0.21647915  0.47053687     1.49480
O1114       O  0.87515144  0.24866172  0.51027339    -1.84020
O1115       O  0.89021424  0.26848004  0.62707379    -0.74650
O1116       O  0.81711879  0.26162439  0.55610473    -0.74470
O1117       O  0.88327179  0.31771117  0.47917909    -0.73980
O1118       O  0.86054912  0.23273258  0.62954454    -0.74660
O1119       O  0.91594461  0.30080278  0.52911475    -0.74260
O1120       O  0.81951481  0.27851556  0.47796982    -0.74850
O1121       O  0.88514096  0.22501812  0.39591082    -0.74240
O1122       O  0.83463683  0.19723206  0.53424194    -0.74990
O1123       O  0.86604235  0.26877762  0.39456669    -0.74380
O1124       O  0.86698453  0.17896756  0.48434000    -0.74850
O1125       O  0.93126470  0.21817566  0.48040619    -0.74760
O1126       O  0.93253047  0.23655628  0.55746016    -0.74550
C1127       C  0.87582829  0.25074923  0.65222096     0.77240
C1128       C  0.80559643  0.26896129  0.51528271     0.77730
C1129       C  0.90639844  0.32059085  0.50088413     0.76690
C1130       C  0.87556498  0.24660222  0.37171725     0.77070
C1131       C  0.84390220  0.17689566  0.50670626     0.78200
C1132       C  0.94465060  0.22890205  0.51734688     0.77250
Zn1133     Zn  0.98552804  0.46818435  0.03908918     1.49720
Zn1134     Zn  0.51200506  0.03287588  0.03564484     1.49360
Zn1135     Zn  0.52680142  0.48533889  0.95094724     1.49110
Zn1136     Zn  0.97005922  0.01243533  0.94995999     1.49480
O1137       O  0.99859604  0.99982448  0.99494859    -1.84020
O1138       O  0.99437419  0.47787577  0.11151205    -0.74650
O1139       O  0.55421943  0.03358454  0.03242775    -0.74470
O1140       O  0.53383125  0.44381338  0.96382650    -0.73980
O1141       O  0.50410943  0.02511683  0.10962777    -0.74660
O1142       O  0.00521523  0.42912253  0.02348259    -0.74260
O1143       O  0.56179171  0.50176261  0.97036410    -0.74850
O1144       O  0.97729629  0.00537495  0.87580077    -0.74240
O1145       O  0.49079871  0.07084284  0.01798320    -0.74990
O1146       O  0.52003358  0.49046836  0.87648967    -0.74380
O1147       O  0.96134662  0.05413799  0.96131658    -0.74850
O1148       O  0.93557658  0.99446729  0.96932865    -0.74760
O1149       O  0.94365378  0.46788221  0.03803807    -0.74550
C1150       C  0.99931299  0.00178607  0.13394554     0.77240
C1151       C  0.57036203  0.01847096  0.00491932     0.77730
C1152       C  0.52522199  0.42428966  0.99362415     0.76690
C1153       C  0.99862787  0.99727125  0.85260922     0.77070
C1154       C  0.96995090  0.07437303  0.98972538     0.78200
C1155       C  0.92731594  0.48012310  0.00725624     0.77250
Zn1156     Zn  0.76139656  0.03127975  0.03831845     1.49720
Zn1157     Zn  0.73674546  0.46750562  0.03439529     1.49360
Zn1158     Zn  0.72210575  0.01152580  0.94833396     1.49110
Zn1159     Zn  0.77901883  0.48940794  0.94958154     1.49480
O1160       O  0.74987865  0.99986035  0.99373363    -1.84020
O1161       O  0.75135803  0.02232398  0.11048836    -0.74650
O1162       O  0.69443112  0.47153572  0.03325301    -0.74470
O1163       O  0.70851765  0.04981279  0.96916365    -0.73980
O1164       O  0.74555160  0.47441210  0.10797205    -0.74660
O1165       O  0.74000465  0.06869747  0.02009569    -0.74260
O1166       O  0.69234655  0.98353925  0.95323484    -0.74850
O1167       O  0.77039364  0.48833950  0.87506576    -0.74240
O1168       O  0.75895046  0.43045199  0.01456296    -0.74430
O1169       O  0.73215157  0.01305421  0.87553042    -0.74380
O1170       O  0.79283628  0.45126273  0.97136398    -0.74850
O1171       O  0.80806043  0.51801939  0.95940256    -0.74760
O1172       O  0.80335807  0.02825650  0.04011956    -0.74550
C1173       C  0.74839531  0.99799602  0.13256104     0.77240
C1174       C  0.68086061  0.48129751  0.99577022     0.77730
C1175       C  0.71766831  0.07073310  0.99539781     0.76690
C1176       C  0.75115365  0.00064219  0.85144782     0.77070
C1177       C  0.78276702  0.42961038  0.99452237     0.78200
C1178       C  0.81811881  0.01956459  0.00334882     0.77250
Zn1179     Zn  0.65093973  0.23246537  0.04087351     1.49720
Zn1180     Zn  0.59593995  0.25965568  0.04254036     1.49360
Zn1181     Zn  0.63639286  0.27963772  0.95496572     1.49110
Zn1182     Zn  0.60897332  0.21588735  0.95348746     1.49480
O1183       O  0.62363618  0.24705215  0.99633255    -1.84020
O1184       O  0.64614214  0.24005704  0.11535114    -0.74650
O1185       O  0.58133676  0.29805850  0.02184400    -0.74470
O1186       O  0.67799582  0.28268987  0.96158030    -0.73980
O1187       O  0.60654975  0.26228104  0.11503990    -0.74660
O1188       O  0.68532269  0.24790845  0.01860609    -0.74260
O1189       O  0.61302950  0.31626570  0.97088211    -0.74850
O1190       O  0.61504182  0.22514662  0.87948503    -0.74240
O1191       O  0.56621422  0.23163226  0.04113089    -0.74990
O1192       O  0.63116118  0.27030183  0.88053558    -0.74380
O1193       O  0.56783985  0.21798157  0.96093467    -0.74850
O1194       O  0.62870057  0.17690538  0.96862058    -0.74760
O1195       O  0.65661626  0.19102484  0.03005236    -0.74550
C1196       C  0.62685463  0.25245958  0.13881608     0.77240
C1197       C  0.59063155  0.31885557  0.99535902     0.77730
C1198       C  0.69389955  0.26636762  0.98702553     0.76690
C1199       C  0.62325721  0.24782234  0.85653173     0.77070
C1200       C  0.55443967  0.22551312  0.00009700     0.78200
C1201       C  0.64819453  0.17190498  0.99939175     0.77250
Zn1202     Zn  0.90531174  0.23952132  0.05316224     1.49720
Zn1203     Zn  0.85249872  0.27041042  0.05727593     1.49360
Zn1204     Zn  0.89305793  0.28521179  0.96643060     1.49110
Zn1205     Zn  0.86195645  0.22330341  0.96990889     1.49480
O1206       O  0.87776086  0.25448047  0.00991205    -1.84020
O1207       O  0.89509338  0.23478749  0.12665238    -0.74650
O1208       O  0.84441483  0.31096506  0.03841761    -0.74470
O1209       O  0.93423801  0.28230366  0.97246475    -0.73980
O1210       O  0.86229983  0.26727166  0.13073808    -0.74660
O1211       O  0.93483147  0.26829623  0.05201310    -0.74260
O1212       O  0.87385569  0.32460365  0.97898689    -0.74850
O1213       O  0.86779152  0.23136953  0.89600846    -0.74240
O1214       O  0.81725189  0.25155629  0.04939787    -0.74990
O1215       O  0.88623825  0.27535413  0.89332181    -0.74380
O1216       O  0.82033878  0.22817030  0.97621627    -0.74850
O1217       O  0.88301049  0.18432574  0.98277914    -0.74760
O1218       O  0.91849070  0.20158655  0.02547872    -0.74550
C1219       C  0.87864083  0.25004037  0.15255164     0.77240
C1220       C  0.85315523  0.32957179  0.00702144     0.77730
C1221       C  0.94716725  0.27285187  0.01071407     0.76690
C1222       C  0.87669122  0.25302428  0.87116516     0.77070
C1223       C  0.80638308  0.24202957  0.00934457     0.78200
C1224       C  0.90713416  0.18131613  0.00045933     0.77250
C1225       C  0.73825477  0.28133160  0.01679482    -0.26210
C1226       C  0.72330720  0.26662666  0.98032515    -0.14280
C1227       C  0.73586053  0.24440450  0.95158185     0.36350
C1228       C  0.76291215  0.23682024  0.96092393    -0.25660
C1229       C  0.77757729  0.25026461  0.99994765    -0.14900
C1230       C  0.76509240  0.27352474  0.02728390     0.37430
N1231       N  0.77925673  0.28888157  0.06660439    -0.89150
H1232       H  0.72825500  0.29767146  0.03981841     0.18550
H1233       H  0.77212818  0.21959560  0.93880042     0.18540
N1234       N  0.72108779  0.22828454  0.91430923    -0.88170
H1235       H  0.76656561  0.30385694  0.08471179     0.35920
H1236       H  0.79440894  0.30113749  0.04927225     0.41010
H1237       H  0.71346249  0.24300655  0.88785945     0.40630
H1238       H  0.70471373  0.21797034  0.93190700     0.35520
C1239       C  0.98326817  0.24038098  0.04118959    -0.26210
C1240       C  0.97528238  0.26178053  0.00614913    -0.14280
C1241       C  0.99301757  0.26868702  0.96571848     0.36350
C1242       C  0.51797030  0.25429316  0.96170863    -0.25660
C1243       C  0.52565311  0.23300985  0.99696544    -0.14900
C1244       C  0.50783507  0.22580461  0.03664515     0.37430
N1245       N  0.51386001  0.20325798  0.07226466    -0.89150
H1246       H  0.96988499  0.23389919  0.07174122     0.18550
H1247       H  0.53208532  0.26091950  0.93239689     0.18540
N1248       N  0.98693377  0.29088711  0.92957511    -0.88170
H1249       H  0.03092609  0.20901519  0.09326062     0.35920
H1250       H  0.51804908  0.18418674  0.05215374     0.41010
H1251       H  0.98256043  0.31012116  0.94906902     0.40630
H1252       H  0.47001378  0.28459223  0.90859381     0.35520
C1253       C  0.67233351  0.09326127  0.00311665    -0.26210
C1254       C  0.70058714  0.09715419  0.99741855    -0.14280
C1255       C  0.71084800  0.12553105  0.99059413     0.36350
C1256       C  0.69279264  0.14896344  0.99103673    -0.25660
C1257       C  0.66461333  0.14510932  0.99672673    -0.14900
C1258       C  0.65421172  0.11678223  0.00288208     0.37430
N1259       N  0.62590541  0.11103686  0.01120272    -0.89150
H1260       H  0.66421107  0.07157830  0.00836818     0.18550
H1261       H  0.70093470  0.17066482  0.98596419     0.18540
N1262       N  0.73893303  0.13155389  0.98037099    -0.88170
H1263       H  0.61889671  0.09884119  0.98049762     0.35920
H1264       H  0.61451896  0.13011786  0.01224085     0.41010
H1265       H  0.75034025  0.11274655  0.97512252     0.40630
H1266       H  0.74682604  0.14254923  0.01168246     0.35520
C1267       C  0.80908388  0.35214088  0.98746539    -0.26210
C1268       C  0.83647316  0.35595490  0.00076519    -0.14280
C1269       C  0.84602728  0.38388909  0.01260340     0.36350
C1270       C  0.82791141  0.40753031  0.01065444    -0.25660
C1271       C  0.80031500  0.40360162  0.99836577    -0.14900
C1272       C  0.79088136  0.37563632  0.98626092     0.37430
N1273       N  0.76310426  0.37128098  0.97186008    -0.89150
H1274       H  0.80188313  0.33059924  0.97779921     0.18550
H1275       H  0.83523374  0.42913259  0.01960782     0.18540
N1276       N  0.87374806  0.38802814  0.02754461    -0.88170
H1277       H  0.75940543  0.34930521  0.96446834     0.35920
H1278       H  0.75998124  0.38235394  0.93785245     0.41010
H1279       H  0.87666680  0.37676231  0.06142063     0.40630
H1280       H  0.87742106  0.40993605  0.03553298     0.35520
C1281       C  0.85442319  0.48598744  0.97517850    -0.26210
C1282       C  0.84557198  0.00667027  0.01107491    -0.14280
C1283       C  0.86258239  0.01276490  0.05284944     0.36350
C1284       C  0.88856429  0.00021033  0.05506323    -0.25660
C1285       C  0.89793536  0.48150192  0.01665262    -0.14900
C1286       C  0.88025771  0.47344355  0.97756483     0.37430
N1287       N  0.88942145  0.45400648  0.93844026    -0.89150
H1288       H  0.84134878  0.47993108  0.94404574     0.18550
H1289       H  0.90234636  0.00711326  0.08461269     0.18540
N1290       N  0.85479970  0.03270649  0.09189345    -0.88170
H1291       H  0.87410578  0.45043455  0.91188383     0.35920
H1292       H  0.89342133  0.43393238  0.95527584     0.41010
H1293       H  0.85003304  0.05264033  0.07521848     0.40630
H1294       H  0.83759419  0.02456636  0.11014769     0.35520
C1295       C  0.61644244  0.02587017  0.97370198    -0.26210
C1296       C  0.59987996  0.01716577  0.01383257    -0.14280
C1297       C  0.61070545  0.49800936  0.05074014     0.36350
C1298       C  0.63709286  0.48675311  0.04451825    -0.25660
C1299       C  0.65287989  0.49355825  0.00181723    -0.14900
C1300       C  0.64251525  0.01427007  0.96679619     0.37430
N1301       N  0.65813501  0.02330367  0.92354109    -0.89150
H1302       H  0.60803017  0.03996234  0.94489532     0.18550
H1303       H  0.64488275  0.47173183  0.07245650     0.18540
N1304       N  0.59494979  0.48796066  0.09311893    -0.88170
H1305       H  0.64897842  0.04094631  0.90548520     0.35920
H1306       H  0.65785943  0.00621840  0.89742380     0.41010
H1307       H  0.57595691  0.49789489  0.09438193     0.40630
H1308       H  0.60498113  0.49445698  0.12604587     0.35520
C1309       C  0.96588361  0.12828059  0.97948697    -0.26210
C1310       C  0.95379025  0.10166285  0.99143134    -0.14280
C1311       C  0.92560463  0.10111532  0.00281555     0.36350
C1312       C  0.91056659  0.12704655  0.00377626    -0.25660
C1313       C  0.92279523  0.15383588  0.99314724    -0.14900
C1314       C  0.95069668  0.15410265  0.97929710     0.37430
N1315       N  0.96397736  0.18011040  0.96299911    -0.89150
H1316       H  0.98715102  0.12895374  0.96917180     0.18550
H1317       H  0.88933313  0.12631155  0.01430764     0.18540
N1318       N  0.91184807  0.07462744  0.01531929    -0.88170
H1319       H  0.95294893  0.18901093  0.93307045     0.35920
H1320       H  0.96403009  0.19481532  0.99289268     0.41010
H1321       H  0.92186819  0.06482018  0.04562599     0.40630
H1322       H  0.91255156  0.06066350  0.98414702     0.35520
C1323       C  0.56937252  0.39862952  0.98872343    -0.26210
C1324       C  0.54102464  0.39671457  0.99498183    -0.14280
C1325       C  0.52924588  0.36899713  0.00096026     0.36350
C1326       C  0.54582223  0.34416342  0.00004956    -0.25660
C1327       C  0.57422188  0.34609437  0.99351316    -0.14900
C1328       C  0.58595470  0.37392927  0.98809754     0.37430
N1329       N  0.61464034  0.37802905  0.98357966    -0.89150
H1330       H  0.57891823  0.41973876  0.98483348     0.18550
H1331       H  0.53629784  0.32306993  0.00425214     0.18540
N1332       N  0.50058294  0.36528168  0.00658764    -0.88170
H1333       H  0.62135123  0.36801547  0.95033456     0.35920
H1334       H  0.62408372  0.36831143  0.01461751     0.41010
H1335       H  0.99099374  0.37491234  0.97562727     0.40630
H1336       H  0.99435234  0.37590970  0.03958535     0.35520
C1337       C  0.85546802  0.23802357  0.73556557    -0.26210
C1338       C  0.87667401  0.25115489  0.70832420    -0.14280
C1339       C  0.89814613  0.26452328  0.73513629     0.36350
C1340       C  0.89736761  0.26525571  0.78823036    -0.25660
C1341       C  0.87614158  0.25219989  0.81527427    -0.14900
C1342       C  0.85492360  0.23844126  0.78868292     0.37430
N1343       N  0.83261545  0.22549855  0.81559431    -0.89150
H1344       H  0.83893897  0.22778294  0.71536100     0.18550
H1345       H  0.91381003  0.27548049  0.80873238     0.18540
N1346       N  0.92090640  0.27685541  0.70865572    -0.88170
H1347       H  0.81884015  0.21610068  0.79041227     0.35920
H1348       H  0.82223474  0.24218491  0.83428351     0.41010
H1349       H  0.93123278  0.25979962  0.69088717     0.40630
H1350       H  0.93458864  0.28625067  0.73401426     0.35520
C1351       C  0.89894558  0.23648643  0.28994688    -0.26210
C1352       C  0.87571252  0.24609892  0.31573267    -0.14280
C1353       C  0.85320263  0.25593419  0.28785361     0.36350
C1354       C  0.85468674  0.25677955  0.23479113    -0.25660
C1355       C  0.87815788  0.24788697  0.20871308    -0.14900
C1356       C  0.90061314  0.23764158  0.23677978     0.37430
N1357       N  0.92526219  0.22921859  0.21156495    -0.89150
H1358       H  0.91624136  0.22903388  0.31152483     0.18550
H1359       H  0.83727110  0.26431977  0.21366995     0.18540
N1360       N  0.82879093  0.26469224  0.31353397    -0.88170
H1361       H  0.93957335  0.22184559  0.23767082     0.35920
H1362       H  0.93349640  0.24784870  0.19491730     0.41010
H1363       H  0.82089507  0.24639017  0.33177354     0.40630
H1364       H  0.81413496  0.27143023  0.28757469     0.35520
C1365       C  0.64746227  0.25306583  0.72037419    -0.26210
C1366       C  0.62322760  0.24881224  0.69374309    -0.14280
C1367       C  0.59882730  0.24405170  0.72093380     0.36350
C1368       C  0.59945839  0.24334828  0.77404034    -0.25660
C1369       C  0.62363592  0.24804300  0.80062602    -0.14900
C1370       C  0.64788650  0.25291726  0.77362427     0.37430
N1371       N  0.67286915  0.25727598  0.80043338    -0.89150
H1372       H  0.66609299  0.25666436  0.69947273     0.18550
H1373       H  0.58080848  0.23952544  0.79477048     0.18540
N1374       N  0.57324199  0.23933078  0.69623881    -0.88170
H1375       H  0.68884808  0.26069103  0.77505888     0.35920
H1376       H  0.67722689  0.23802356  0.81971979     0.41010
H1377       H  0.57508348  0.23954433  0.65690564     0.40630
H1378       H  0.56048380  0.25660748  0.70598003     0.35520
C1379       C  0.65008265  0.25474465  0.27588386    -0.26210
C1380       C  0.62512114  0.25342933  0.30137546    -0.14280
C1381       C  0.60082363  0.25314726  0.27341554     0.36350
C1382       C  0.60207344  0.25393094  0.22042163    -0.25660
C1383       C  0.62704111  0.25424714  0.19470150    -0.14900
C1384       C  0.65134574  0.25492810  0.22275721     0.37430
N1385       N  0.67713823  0.25594838  0.19737268    -0.89150
H1386       H  0.66868931  0.25516968  0.29757558     0.18550
H1387       H  0.58337049  0.25339063  0.19904268     0.18540
N1388       N  0.57498589  0.25287750  0.29877783    -0.88170
H1389       H  0.69297174  0.25603642  0.22358876     0.35920
H1390       H  0.67822172  0.27569991  0.17797193     0.41010
H1391       H  0.57249824  0.23236863  0.31505955     0.40630
H1392       H  0.55922624  0.25510810  0.27270045     0.35520
C1393       C  0.73407465  0.25932295  0.46321365    -0.26210
C1394       C  0.72337100  0.23841094  0.49686543    -0.14280
C1395       C  0.73947124  0.22904918  0.53737679     0.36350
C1396       C  0.76543435  0.24082789  0.54391127    -0.25660
C1397       C  0.77635735  0.26151286  0.50997891    -0.14900
C1398       C  0.76014321  0.27079038  0.46908921     0.37430
N1399       N  0.76909543  0.29224291  0.43355371    -0.89150
H1400       H  0.72185435  0.26756395  0.43240727     0.18550
H1401       H  0.77749261  0.23263659  0.57497040     0.18540
N1402       N  0.72983380  0.20723676  0.57157590    -0.88170
H1403       H  0.78543210  0.28397070  0.41286502     0.35920
H1404       H  0.77522720  0.31074970  0.45347295     0.41010
H1405       H  0.73014163  0.21590108  0.60816383     0.40630
H1406       H  0.74335389  0.18974653  0.57037060     0.35520
C1407       C  0.51601110  0.24146761  0.46554918    -0.26210
C1408       C  0.52638099  0.26187844  0.50054849    -0.14280
C1409       C  0.51000110  0.26977637  0.54222949     0.36350
C1410       C  0.98420849  0.25751255  0.54756146    -0.25660
C1411       C  0.97374931  0.23724599  0.51237761    -0.14900
C1412       C  0.99022692  0.22918214  0.47089220     0.37430
N1413       N  0.98179392  0.20826064  0.43396073    -0.89150
H1414       H  0.52828543  0.23423849  0.43388422     0.18550
H1415       H  0.97197336  0.26473404  0.57928066     0.18540
N1416       N  0.51850203  0.29061959  0.57924319    -0.88170
H1417       H  0.46524383  0.21650160  0.41405410     0.35920
H1418       H  0.97616334  0.18915684  0.45260538     0.41010
H1419       H  0.52410033  0.30976739  0.56070203     0.40630
H1420       H  0.03510802  0.28233434  0.59893568     0.35520
C1421       C  0.77499616  0.99491107  0.76874194    -0.26210
C1422       C  0.75083572  0.00060364  0.79529444    -0.14280
C1423       C  0.72682071  0.50635440  0.76773862     0.36350
C1424       C  0.72780051  0.50712664  0.71469074    -0.25660
C1425       C  0.75187638  0.00127182  0.68846950    -0.14900
C1426       C  0.77576525  0.99518475  0.71560090     0.37430
N1427       N  0.80077580  0.98982845  0.68910830    -0.89150
H1428       H  0.79346720  0.99058929  0.78947776     0.18550
H1429       H  0.70944983  0.51144460  0.69354119     0.18540
N1430       N  0.70139964  0.51078929  0.79341020    -0.88170
H1431       H  0.81644730  0.98564687  0.71463136     0.35920
H1432       H  0.80602179  0.00889500  0.66995828     0.41010
H1433       H  0.69618181  0.49121893  0.81098877     0.40630
H1434       H  0.68595082  0.51526970  0.76756991     0.35520
C1435       C  0.72754371  0.00745691  0.26925082    -0.26210
C1436       C  0.75021922  0.99618388  0.29444093    -0.14280
C1437       C  0.77223147  0.48492137  0.26597092     0.36350
C1438       C  0.77093346  0.48539382  0.21302443    -0.25660
C1439       C  0.74846933  0.99713471  0.18805705    -0.14900
C1440       C  0.72654997  0.00827049  0.21617495     0.37430
N1441       N  0.70348233  0.02039538  0.19066394    -0.89150
H1442       H  0.71076516  0.01610403  0.29114973     0.18550
H1443       H  0.78770645  0.47671123  0.19114805     0.18540
N1444       N  0.79569873  0.47203545  0.28905140    -0.88170
H1445       H  0.68918801  0.02788987  0.21689251     0.35920
H1446       H  0.69417179  0.00363271  0.17038006     0.41010
H1447       H  0.79397060  0.47086767  0.32832506     0.40630
H1448       H  0.81233498  0.48533583  0.28097577     0.35520
C1449       C  0.71852991  0.37123554  0.51965341    -0.26210
C1450       C  0.70701058  0.39857307  0.51125498    -0.14280
C1451       C  0.67833656  0.40108493  0.50836139     0.36350
C1452       C  0.66204579  0.37603205  0.51054297    -0.25660
C1453       C  0.67367944  0.34850676  0.51528216    -0.14900
C1454       C  0.70216480  0.34612001  0.52147801     0.37430
N1455       N  0.71438725  0.31808334  0.52879249    -0.89150
H1456       H  0.74035061  0.36932834  0.52271582     0.18550
H1457       H  0.64028019  0.37789313  0.50623054     0.18540
N1458       N  0.66585334  0.42914070  0.50241293    -0.88170
H1459       H  0.73540532  0.32001984  0.53249182     0.35920
H1460       H  0.70716631  0.30979644  0.56308579     0.41010
H1461       H  0.66994453  0.44125695  0.53500957     0.40630
H1462       H  0.64476867  0.42722782  0.50020045     0.35520
C1463       C  0.83534418  0.12408841  0.51951305    -0.26210
C1464       C  0.82648184  0.15088327  0.50095428    -0.14280
C1465       C  0.79967993  0.15345154  0.48217286     0.36350
C1466       C  0.78231667  0.12911429  0.48256659    -0.25660
C1467       C  0.79115027  0.10242012  0.50155611    -0.14900
C1468       C  0.81801088  0.09977048  0.51981175     0.37430
N1469       N  0.82746904  0.07239383  0.53922037    -0.89150
H1470       H  0.85567081  0.12227849  0.53460934     0.18550
H1471       H  0.76207477  0.13078609  0.46704024     0.18540
N1472       N  0.79051745  0.18049652  0.46106311    -0.88170
H1473       H  0.84722473  0.07437797  0.55303799     0.35920
H1474       H  0.82852427  0.05775149  0.50901389     0.41010
H1475       H  0.78914021  0.19554622  0.49050689     0.40630
H1476       H  0.77090362  0.17833255  0.44664267     0.35520
C1477       C  0.97979436  0.48181589  0.71565821    -0.26210
C1478       C  0.00028236  0.99698697  0.69010791    -0.14280
C1479       C  0.52061065  0.01149504  0.71811676     0.36350
C1480       C  0.51960170  0.01077052  0.77107762    -0.25660
C1481       C  0.99880291  0.99610567  0.79682078    -0.14900
C1482       C  0.97877310  0.48106976  0.76865132     0.37430
N1483       N  0.95785370  0.46388699  0.79199533    -0.89150
H1484       H  0.96442523  0.47038145  0.69416986     0.18550
H1485       H  0.53504386  0.02219978  0.79239056     0.18540
N1486       N  0.54243062  0.02721394  0.69441881    -0.88170
H1487       H  0.93932743  0.47420563  0.78538240     0.35920
H1488       H  0.96027287  0.46221637  0.83104919     0.41010
H1489       H  0.54138648  0.02631163  0.65502896     0.40630
H1490       H  0.56055553  0.01700080  0.70448528     0.35520
C1491       C  0.98386619  0.02151619  0.27033520    -0.26210
C1492       C  0.99995110  0.00134348  0.29625825    -0.14280
C1493       C  0.51604190  0.48136755  0.26859303     0.36350
C1494       C  0.51531906  0.48191540  0.21562149    -0.25660
C1495       C  0.99947850  0.00228611  0.18968106    -0.14900
C1496       C  0.98359067  0.02232824  0.21716066     0.37430
N1497       N  0.96691986  0.04301383  0.19097602    -0.89150
H1498       H  0.97156654  0.03673031  0.29172617     0.18550
H1499       H  0.52743148  0.46641299  0.19447369     0.18540
N1500       N  0.53272501  0.45980649  0.29261508    -0.88170
H1501       H  0.95657224  0.05625421  0.21676791     0.35920
H1502       H  0.95216462  0.03138411  0.17109750     0.41010
H1503       H  0.53112460  0.46049753  0.33195842     0.40630
H1504       H  0.55290526  0.46451004  0.28363987     0.35520
C1505       C  0.86161314  0.49454765  0.54557744    -0.26210
C1506       C  0.85033543  0.48876872  0.49790572    -0.14280
C1507       C  0.86435470  0.49780781  0.45398232     0.36350
C1508       C  0.88744313  0.01483823  0.45882045    -0.25660
C1509       C  0.89998718  0.01902329  0.50589416    -0.14900
C1510       C  0.88650309  0.00919011  0.55025903     0.37430
N1511       N  0.89744005  0.01294436  0.60022446    -0.89150
H1512       H  0.85046533  0.48878958  0.57952273     0.18550
H1513       H  0.89777616  0.02156616  0.42446416     0.18540
N1514       N  0.85539210  0.49037669  0.40375598    -0.88170
H1515       H  0.88342906  0.02509348  0.62116089     0.35920
H1516       H  0.91511887  0.02526717  0.59976697     0.41010
H1517       H  0.83970440  0.47514827  0.40499295     0.40630
H1518       H  0.87138584  0.47962693  0.38564407     0.35520
C1519       C  0.63771466  0.00781812  0.54410124    -0.26210
C1520       C  0.64965605  0.01329420  0.49679084    -0.14280
C1521       C  0.63560861  0.00525624  0.45237567     0.36350
C1522       C  0.61182793  0.48924794  0.45635201    -0.25660
C1523       C  0.59905620  0.48472825  0.50318475    -0.14900
C1524       C  0.61228024  0.49420032  0.54796977     0.37430
N1525       N  0.60046274  0.49133798  0.59752608    -0.89150
H1526       H  0.64866311  0.01313029  0.57839680     0.18550
H1527       H  0.60149530  0.48319300  0.42169283     0.18540
N1528       N  0.64520821  0.01268090  0.40251159    -0.88170
H1529       H  0.61335664  0.47821661  0.61895282     0.35920
H1530       H  0.58190493  0.48060784  0.59651694     0.41010
H1531       H  0.66138101  0.02728244  0.40444869     0.40630
H1532       H  0.62973766  0.02419125  0.38446027     0.35520
C1533       C  0.96762279  0.37099237  0.49292222    -0.26210
C1534       C  0.95526172  0.39831698  0.49305800    -0.14280
C1535       C  0.92652778  0.40011637  0.49334211     0.36350
C1536       C  0.91085936  0.37453481  0.49359101    -0.25660
C1537       C  0.92319643  0.34717267  0.49428271    -0.14900
C1538       C  0.95193022  0.34540144  0.49266170     0.37430
N1539       N  0.96508791  0.31756392  0.49002000    -0.89150
H1540       H  0.98954182  0.36962671  0.49183777     0.18550
H1541       H  0.88895263  0.37597887  0.49512227     0.18540
N1542       N  0.91334114  0.42800730  0.49465384    -0.88170
H1543       H  0.98613807  0.32006077  0.48859887     0.35920
H1544       H  0.95944678  0.30777321  0.45590702     0.41010
H1545       H  0.91830142  0.43798331  0.52898086     0.40630
H1546       H  0.89226364  0.42561550  0.49447344     0.35520
C1547       C  0.58915780  0.12524681  0.50237696    -0.26210
C1548       C  0.57720250  0.15248670  0.50917847    -0.14280
C1549       C  0.54878783  0.15429478  0.51692700     0.36350
C1550       C  0.53281300  0.12890436  0.51498291    -0.25660
C1551       C  0.54459419  0.10184829  0.50472750    -0.14900
C1552       C  0.57329756  0.10007057  0.49954583     0.37430
N1553       N  0.58709290  0.07296794  0.49200983    -0.89150
H1554       H  0.61088808  0.12361835  0.49693577     0.18550
H1555       H  0.51104989  0.13035410  0.51998900     0.18540
N1556       N  0.53626438  0.18198359  0.52646434    -0.88170
H1557       H  0.58171625  0.06430675  0.45690244     0.35920
H1558       H  0.58135978  0.05856812  0.52067152     0.41010
H1559       H  0.54382291  0.18985390  0.56077047     0.40630
H1560       H  0.51533638  0.17961422  0.53126024     0.35520
Zn1561     Zn  0.52532680  0.51697922  0.45023797     1.49720
Zn1562     Zn  0.51352662  0.96721127  0.53537331     1.49360
Zn1563     Zn  0.98590213  0.53207754  0.53993439     1.49110
Zn1564     Zn  0.97282905  0.98598219  0.44957242     1.49480
O1565       O  0.49937788  0.50042981  0.49552579    -1.84020
O1566       O  0.55899840  0.50074702  0.46996395    -0.74650
O1567       O  0.50780128  0.97543187  0.60989408    -0.74470
O1568       O  0.00844722  0.56979079  0.53092947    -0.73980
O1569       O  0.55500584  0.96543879  0.52682198    -0.74660
O1570       O  0.53317218  0.55817360  0.46371739    -0.74260
O1571       O  0.99150277  0.52057167  0.61263510    -0.74850
O1572       O  0.93972187  0.00308051  0.47056684    -0.74240
O1573       O  0.49211838  0.92917024  0.52036477    -0.74990
O1574       O  0.94457000  0.53574307  0.53189390    -0.74380
O1575       O  0.96408951  0.94482684  0.46080394    -0.74850
O1576       O  0.97866428  0.99260582  0.37511181    -0.74760
O1577       O  0.52010921  0.51086250  0.37567426    -0.74550
C1578       C  0.56943071  0.98260207  0.49993139     0.77240
C1579       C  0.49974736  0.49762554  0.63453278     0.77730
C1580       C  0.52733687  0.57557382  0.49924709     0.76690
C1581       C  0.92970885  0.52038121  0.50272890     0.77070
C1582       C  0.97187881  0.92518595  0.49091612     0.78200
C1583       C  0.99953068  0.00168033  0.35184701     0.77250
Zn1584     Zn  0.76648805  0.96907230  0.53614036     1.49720
Zn1585     Zn  0.77491372  0.51732383  0.44701681     1.49360
Zn1586     Zn  0.72477323  0.98201733  0.44905582     1.49110
Zn1587     Zn  0.73411721  0.53105517  0.53584521     1.49480
O1588       O  0.75010136  0.49991365  0.49379220    -1.84020
O1589       O  0.80758724  0.96827596  0.52426329    -0.74650
O1590       O  0.76887874  0.51107989  0.37278513    -0.74470
O1591       O  0.71663800  0.94191597  0.46851065    -0.73980
O1592       O  0.80944938  0.50209953  0.46427239    -0.74660
O1593       O  0.74491016  0.93024760  0.53036228    -0.74260
O1594       O  0.73157210  0.98453542  0.37439831    -0.74850
O1595       O  0.69286402  0.53162468  0.52513168    -0.74240
O1596       O  0.78170431  0.55867422  0.46067517    -0.74990
O1597       O  0.69041847  0.99904423  0.46297769    -0.74380
O1598       O  0.75522982  0.56978769  0.52611577    -0.74850
O1599       O  0.73903363  0.52114851  0.60945912    -0.74760
O1600       O  0.76309978  0.98029640  0.60929607    -0.74550
C1601       C  0.82093573  0.98491079  0.49459243     0.77240
C1602       C  0.75034593  0.49716893  0.35004512     0.77730
C1603       C  0.72432085  0.92454428  0.50266309     0.76690
C1604       C  0.67922788  0.51609309  0.49415157     0.77070
C1605       C  0.77437270  0.57607464  0.49522085     0.78200
C1606       C  0.75142342  0.50095921  0.63275170     0.77250
Zn1607     Zn  0.63922055  0.71918620  0.53940669     1.49720
Zn1608     Zn  0.59787004  0.73747766  0.45291828     1.49360
Zn1609     Zn  0.61047933  0.78217356  0.54117838     1.49110
Zn1610     Zn  0.65191689  0.76515856  0.45367979     1.49480
O1611       O  0.62480632  0.75097876  0.49897134    -1.84020
O1612       O  0.61707300  0.68154524  0.52505582    -0.74650
O1613       O  0.56701899  0.76424753  0.45384900    -0.74470
O1614       O  0.61524654  0.77200419  0.61513615    -0.73980
O1615       O  0.58407765  0.69941130  0.47662360    -0.74660
O1616       O  0.63345873  0.72777541  0.61395027    -0.74260
O1617       O  0.56898910  0.78063393  0.53219991    -0.74850
O1618       O  0.66620513  0.80229959  0.48017503    -0.74240
O1619       O  0.60929213  0.73534263  0.38022151    -0.74990
O1620       O  0.63325172  0.81983060  0.52951458    -0.74380
O1621       O  0.64077345  0.76949402  0.38133751    -0.74850
O1622       O  0.68232078  0.73788283  0.45198629    -0.74760
O1623       O  0.68073662  0.72079347  0.52997632    -0.74550
C1624       C  0.59385544  0.67912898  0.50356869     0.77240
C1625       C  0.55529945  0.77072072  0.49498323     0.77730
C1626       C  0.62405541  0.74958467  0.63795894     0.76690
C1627       C  0.65662949  0.82223444  0.50832091     0.77070
C1628       C  0.62495087  0.75278318  0.35710357     0.78200
C1629       C  0.69424802  0.73063486  0.49233183     0.77250
Zn1630     Zn  0.90186961  0.76355429  0.55520403     1.49720
Zn1631     Zn  0.84844699  0.73528966  0.55716518     1.49360
Zn1632     Zn  0.86089324  0.77964714  0.46810522     1.49110
Zn1633     Zn  0.88979723  0.71647912  0.47053685     1.49480
O1634       O  0.87515147  0.74866170  0.51027334    -1.84020
O1635       O  0.89021425  0.76848008  0.62707371    -0.74650
O1636       O  0.81711881  0.76162437  0.55610467    -0.74470
O1637       O  0.88327181  0.81771115  0.47917901    -0.73980
O1638       O  0.86054914  0.73273262  0.62954452    -0.74660
O1639       O  0.91594465  0.80080276  0.52911465    -0.74260
O1640       O  0.81951484  0.77851553  0.47796975    -0.74850
O1641       O  0.88514102  0.72501808  0.39591078    -0.74240
O1642       O  0.83463687  0.69723204  0.53424195    -0.74990
O1643       O  0.86604240  0.76877758  0.39456662    -0.74380
O1644       O  0.86698455  0.67896754  0.48433999    -0.74850
O1645       O  0.93126473  0.71817564  0.48040621    -0.74760
O1646       O  0.93253047  0.73655626  0.55746017    -0.74550
C1647       C  0.87582830  0.75074928  0.65222091     0.77240
C1648       C  0.80559645  0.76896127  0.51528264     0.77730
C1649       C  0.90639847  0.82059083  0.50088403     0.76690
C1650       C  0.87556504  0.74660218  0.37171719     0.77070
C1651       C  0.84390223  0.67689564  0.50670627     0.78200
C1652       C  0.94465062  0.72890203  0.51734691     0.77250
Zn1653     Zn  0.98552789  0.96818411  0.03908930     1.49720
Zn1654     Zn  0.51200506  0.53287593  0.03564483     1.49360
Zn1655     Zn  0.52680143  0.98533885  0.95094725     1.49110
Zn1656     Zn  0.97005939  0.51243579  0.94996008     1.49480
O1657       O  0.99859619  0.49982479  0.99494860    -1.84020
O1658       O  0.99437412  0.97787558  0.11151211    -0.74650
O1659       O  0.55421944  0.53358458  0.03242773    -0.74470
O1660       O  0.53383125  0.94381335  0.96382653    -0.73980
O1661       O  0.50410944  0.52511688  0.10962777    -0.74660
O1662       O  0.00521501  0.92912224  0.02348273    -0.74260
O1663       O  0.56179171  0.00176258  0.97036411    -0.74850
O1664       O  0.97729632  0.50537530  0.87580083    -0.74240
O1665       O  0.49079870  0.57084290  0.01798320    -0.74990
O1666       O  0.52003358  0.99046832  0.87648967    -0.74380
O1667       O  0.96134696  0.55413849  0.96131664    -0.74850
O1668       O  0.93557671  0.49446792  0.96932901    -0.74760
O1669       O  0.94365364  0.96788205  0.03803827    -0.74550
C1670       C  0.99931308  0.50178623  0.13394556     0.77240
C1671       C  0.57036204  0.51847099  0.00491930     0.77730
C1672       C  0.52522199  0.92428962  0.99362417     0.76690
C1673       C  0.99862787  0.49727153  0.85260922     0.77070
C1674       C  0.96995128  0.57437346  0.98972557     0.78200
C1675       C  0.92731579  0.98012271  0.00725618     0.77250
Zn1676     Zn  0.76139654  0.53127969  0.03831839     1.49720
Zn1677     Zn  0.73674548  0.96750568  0.03439530     1.49360
Zn1678     Zn  0.72210571  0.51152573  0.94833395     1.49110
Zn1679     Zn  0.77901886  0.98940802  0.94958159     1.49480
O1680       O  0.74987862  0.49986028  0.99373360    -1.84020
O1681       O  0.75135802  0.52232392  0.11048832    -0.74650
O1682       O  0.69443115  0.97153578  0.03325300    -0.74470
O1683       O  0.70851760  0.54981272  0.96916365    -0.73980
O1684       O  0.74555161  0.97441217  0.10797206    -0.74660
O1685       O  0.74000461  0.56869740  0.02009565    -0.74260
O1686       O  0.69234653  0.48353916  0.95323484    -0.74850
O1687       O  0.77039368  0.98833956  0.87506580    -0.74240
O1688       O  0.75895051  0.93045207  0.01456299    -0.74430
O1689       O  0.73215153  0.51305416  0.87553040    -0.74380
O1690       O  0.79283634  0.95126284  0.97136407    -0.74850
O1691       O  0.80806041  0.01801954  0.95940263    -0.74760
O1692       O  0.80335805  0.52825645  0.04011946    -0.74550
C1693       C  0.74839530  0.49799596  0.13256101     0.77240
C1694       C  0.68086063  0.98129758  0.99577022     0.77730
C1695       C  0.71766827  0.57073302  0.99539779     0.76690
C1696       C  0.75115361  0.50064214  0.85144779     0.77070
C1697       C  0.78276708  0.92961048  0.99452245     0.78200
C1698       C  0.81811882  0.51956453  0.00334876     0.77250
Zn1699     Zn  0.65093972  0.73246531  0.04087351     1.49720
Zn1700     Zn  0.59593993  0.75965564  0.04254036     1.49360
Zn1701     Zn  0.63639288  0.77963768  0.95496576     1.49110
Zn1702     Zn  0.60897331  0.71588732  0.95348745     1.49480
O1703       O  0.62363617  0.74705211  0.99633257    -1.84020
O1704       O  0.64614214  0.74005701  0.11535115    -0.74650
O1705       O  0.58133680  0.79805850  0.02184406    -0.74470
O1706       O  0.67799585  0.78268982  0.96158038    -0.73980
O1707       O  0.60654972  0.76228095  0.11503991    -0.74660
O1708       O  0.68532269  0.74790835  0.01860608    -0.74260
O1709       O  0.61302953  0.81626568  0.97088213    -0.74850
O1710       O  0.61504184  0.72514661  0.87948503    -0.74240
O1711       O  0.56621411  0.73163232  0.04113079    -0.74990
O1712       O  0.63116121  0.77030181  0.88053561    -0.74380
O1713       O  0.56783983  0.71798156  0.96093460    -0.74850
O1714       O  0.62870054  0.67690534  0.96862056    -0.74760
O1715       O  0.65661622  0.69102477  0.03005239    -0.74550
C1716       C  0.62685461  0.75245951  0.13881609     0.77240
C1717       C  0.59063159  0.81885556  0.99535907     0.77730
C1718       C  0.69389957  0.76636754  0.98702556     0.76690
C1719       C  0.62325724  0.74782233  0.85653175     0.77070
C1720       C  0.55443961  0.72551312  0.00009687     0.78200
C1721       C  0.64819449  0.67190493  0.99939176     0.77250
Zn1722     Zn  0.90531190  0.73952150  0.05316212     1.49720
Zn1723     Zn  0.85249885  0.77041057  0.05727592     1.49360
Zn1724     Zn  0.89305799  0.78521195  0.96643050     1.49110
Zn1725     Zn  0.86195655  0.72330356  0.96990888     1.49480
O1726       O  0.87776097  0.75448062  0.00991200    -1.84020
O1727       O  0.89509360  0.73478764  0.12665229    -0.74650
O1728       O  0.84441499  0.81096523  0.03841773    -0.74470
O1729       O  0.93423807  0.78230376  0.97246443    -0.73980
O1730       O  0.86229994  0.76727169  0.13073806    -0.74660
O1731       O  0.93483155  0.76829651  0.05201286    -0.74260
O1732       O  0.87385578  0.82460381  0.97898687    -0.74850
O1733       O  0.86779158  0.73136967  0.89600843    -0.74240
O1734       O  0.81725198  0.75155654  0.04939776    -0.74990
O1735       O  0.88623824  0.77535430  0.89332174    -0.74380
O1736       O  0.82033887  0.72817040  0.97621631    -0.74850
O1737       O  0.88301062  0.68432593  0.98277914    -0.74760
O1738       O  0.91849092  0.70158678  0.02547847    -0.74550
C1739       C  0.87864098  0.75004043  0.15255158     0.77240
C1740       C  0.85315536  0.82957196  0.00702152     0.77730
C1741       C  0.94716730  0.77285195  0.01071375     0.76690
C1742       C  0.87669123  0.75302443  0.87116511     0.77070
C1743       C  0.80638317  0.74202971  0.00934454     0.78200
C1744       C  0.90713433  0.68131635  0.00045918     0.77250
C1745       C  0.73825479  0.78133161  0.01679476    -0.26210
C1746       C  0.72330722  0.76662659  0.98032519    -0.14280
C1747       C  0.73586057  0.74440440  0.95158197     0.36350
C1748       C  0.76291221  0.73682020  0.96092404    -0.25660
C1749       C  0.77757736  0.75026467  0.99994765    -0.14900
C1750       C  0.76509245  0.77352482  0.02728381     0.37430
N1751       N  0.77925678  0.78888176  0.06660417    -0.89150
H1752       H  0.72825501  0.79767149  0.03981828     0.18550
H1753       H  0.77212826  0.71959555  0.93880059     0.18540
N1754       N  0.72108784  0.72828436  0.91430944    -0.88170
H1755       H  0.76656565  0.80385715  0.08471150     0.35920
H1756       H  0.79440897  0.80113766  0.04927192     0.41010
H1757       H  0.71346252  0.74300632  0.88785960     0.40630
H1758       H  0.70471380  0.71797017  0.93190727     0.35520
C1759       C  0.98326791  0.74038051  0.04118884    -0.26210
C1760       C  0.97528232  0.76178030  0.00614866    -0.14280
C1761       C  0.99301760  0.76868684  0.96571818     0.36350
C1762       C  0.51797026  0.75429319  0.96170852    -0.25660
C1763       C  0.52565305  0.73300981  0.99696522    -0.14900
C1764       C  0.50783497  0.72580446  0.03664480     0.37430
N1765       N  0.51385989  0.70325775  0.07226417    -0.89150
H1766       H  0.96988462  0.73389866  0.07174027     0.18550
H1767       H  0.53208530  0.76091961  0.93239688     0.18540
N1768       N  0.98693396  0.79088711  0.92957504    -0.88170
H1769       H  0.03092563  0.70901427  0.09325974     0.35920
H1770       H  0.51804897  0.68418656  0.05215313     0.41010
H1771       H  0.98256070  0.81012110  0.94906915     0.40630
H1772       H  0.47001376  0.78459239  0.90859380     0.35520
C1773       C  0.67233346  0.59326120  0.00311663    -0.26210
C1774       C  0.70058710  0.59715412  0.99741854    -0.14280
C1775       C  0.71084795  0.62553098  0.99059414     0.36350
C1776       C  0.69279260  0.64896338  0.99103675    -0.25660
C1777       C  0.66461329  0.64510925  0.99672674    -0.14900
C1778       C  0.65421168  0.61678216  0.00288207     0.37430
N1779       N  0.62590537  0.61103680  0.01120269    -0.89150
H1780       H  0.66421102  0.57157824  0.00836814     0.18550
H1781       H  0.70093466  0.67066475  0.98596422     0.18540
N1782       N  0.73893298  0.63155381  0.98037100    -0.88170
H1783       H  0.61889666  0.59884114  0.98049758     0.35920
H1784       H  0.61451892  0.63011780  0.01224082     0.41010
H1785       H  0.75034020  0.61274647  0.97512249     0.40630
H1786       H  0.74682601  0.64254914  0.01168248     0.35520
C1787       C  0.80908402  0.85214102  0.98746532    -0.26210
C1788       C  0.83647328  0.85595506  0.00076528    -0.14280
C1789       C  0.84602735  0.88388924  0.01260366     0.36350
C1790       C  0.82791146  0.90753044  0.01065471    -0.25660
C1791       C  0.80031507  0.90360174  0.99836588    -0.14900
C1792       C  0.79088148  0.87563645  0.98626087     0.37430
N1793       N  0.76310441  0.87128109  0.97185987    -0.89150
H1794       H  0.80188332  0.83059939  0.97779900     0.18550
H1795       H  0.83523375  0.92913272  0.01960822     0.18540
N1796       N  0.87374811  0.88802830  0.02754503    -0.88170
H1797       H  0.75940561  0.84930532  0.96446802     0.35920
H1798       H  0.75998142  0.88235410  0.93785228     0.41010
H1799       H  0.87666681  0.87676243  0.06142102     0.40630
H1800       H  0.87742107  0.90993621  0.03553349     0.35520
C1801       C  0.85442308  0.98598741  0.97517840    -0.26210
C1802       C  0.84557204  0.50667034  0.01107490    -0.14280
C1803       C  0.86258245  0.51276513  0.05284936     0.36350
C1804       C  0.88856439  0.50021068  0.05506318    -0.25660
C1805       C  0.89793522  0.98150163  0.01665255    -0.14900
C1806       C  0.88025754  0.97344339  0.97756470     0.37430
N1807       N  0.88942122  0.95400634  0.93844006    -0.89150
H1808       H  0.84134866  0.97993117  0.94404558     0.18550
H1809       H  0.90234645  0.50711372  0.08461258     0.18540
N1810       N  0.85479971  0.53270678  0.09189324    -0.88170
H1811       H  0.87410554  0.95043452  0.91188359     0.35920
H1812       H  0.89342100  0.93393219  0.95527555     0.41010
H1813       H  0.85003296  0.55264057  0.07521814     0.40630
H1814       H  0.83759423  0.52456663  0.11014756     0.35520
C1815       C  0.61644245  0.52587015  0.97370195    -0.26210
C1816       C  0.59987997  0.51716578  0.01383255    -0.14280
C1817       C  0.61070545  0.99800934  0.05074014     0.36350
C1818       C  0.63709287  0.98675312  0.04451824    -0.25660
C1819       C  0.65287991  0.99355828  0.00181724    -0.14900
C1820       C  0.64251525  0.51427003  0.96679616     0.37430
N1821       N  0.65813500  0.52330359  0.92354103    -0.89150
H1822       H  0.60803018  0.53996232  0.94489527     0.18550
H1823       H  0.64488278  0.97173183  0.07245648     0.18540
N1824       N  0.59494980  0.98796061  0.09311891    -0.88170
H1825       H  0.64897843  0.54094623  0.90548511     0.35920
H1826       H  0.65785940  0.50621830  0.89742377     0.41010
H1827       H  0.57595692  0.99789483  0.09438192     0.40630
H1828       H  0.60498113  0.99445694  0.12604586     0.35520
C1829       C  0.96588370  0.62828092  0.97948567    -0.26210
C1830       C  0.95379064  0.60166327  0.99143171    -0.14280
C1831       C  0.92560519  0.60111571  0.00281734     0.36350
C1832       C  0.91056703  0.62704686  0.00377782    -0.25660
C1833       C  0.92279538  0.65383611  0.99314709    -0.14900
C1834       C  0.95069662  0.65410288  0.97929550     0.37430
N1835       N  0.96397686  0.68011050  0.96299559    -0.89150
H1836       H  0.98715094  0.62895405  0.96916930     0.18550
H1837       H  0.88933373  0.62631188  0.01431033     0.18540
N1838       N  0.91184894  0.57462788  0.01532265    -0.88170
H1839       H  0.95294798  0.68901036  0.93306692     0.35920
H1840       H  0.96402977  0.69481600  0.99288831     0.41010
H1841       H  0.92186952  0.56482106  0.04562925     0.40630
H1842       H  0.91255214  0.56066358  0.98415087     0.35520
C1843       C  0.56937253  0.89862950  0.98872344    -0.26210
C1844       C  0.54102466  0.89671454  0.99498185    -0.14280
C1845       C  0.52924591  0.86899710  0.00096031     0.36350
C1846       C  0.54582226  0.84416340  0.00004961    -0.25660
C1847       C  0.57422192  0.84609435  0.99351320    -0.14900
C1848       C  0.58595472  0.87392926  0.98809756     0.37430
N1849       N  0.61464035  0.87802904  0.98357966    -0.89150
H1850       H  0.57891824  0.91973874  0.98483348     0.18550
H1851       H  0.53629788  0.82306990  0.00425220     0.18540
N1852       N  0.50058297  0.86528163  0.00658770    -0.88170
H1853       H  0.62135124  0.86801546  0.95033457     0.35920
H1854       H  0.62408375  0.86831143  0.01461751     0.41010
H1855       H  0.99099343  0.87491201  0.97562756     0.40630
H1856       H  0.99435209  0.87590942  0.03958563     0.35520
C1857       C  0.85546803  0.73802367  0.73556554    -0.26210
C1858       C  0.87667402  0.75115498  0.70832415    -0.14280
C1859       C  0.89814614  0.76452340  0.73513622     0.36350
C1860       C  0.89736761  0.76525585  0.78823030    -0.25660
C1861       C  0.87614159  0.75220003  0.81527422    -0.14900
C1862       C  0.85492361  0.73844138  0.78868289     0.37430
N1863       N  0.83261546  0.72549868  0.81559430    -0.89150
H1864       H  0.83893899  0.72778302  0.71536099     0.18550
H1865       H  0.91381003  0.77548065  0.80873230     0.18540
N1866       N  0.92090640  0.77685551  0.70865564    -0.88170
H1867       H  0.81884016  0.71610080  0.79041228     0.35920
H1868       H  0.82223475  0.74218504  0.83428349     0.41010
H1869       H  0.93123278  0.75979971  0.69088712     0.40630
H1870       H  0.93458863  0.78625080  0.73401416     0.35520
C1871       C  0.89894568  0.73648641  0.28994685    -0.26210
C1872       C  0.87571261  0.74609888  0.31573261    -0.14280
C1873       C  0.85320272  0.75593414  0.28785354     0.36350
C1874       C  0.85468686  0.75677953  0.23479106    -0.25660
C1875       C  0.87815801  0.74788698  0.20871302    -0.14900
C1876       C  0.90061327  0.73764158  0.23677975     0.37430
N1877       N  0.92526233  0.72921861  0.21156494    -0.89150
H1878       H  0.91624145  0.72903387  0.31152481     0.18550
H1879       H  0.83727122  0.76431975  0.21366986     0.18540
N1880       N  0.82879100  0.76469217  0.31353386    -0.88170
H1881       H  0.93957347  0.72184560  0.23767083     0.35920
H1882       H  0.93349654  0.74784873  0.19491735     0.41010
H1883       H  0.82089515  0.74639008  0.33177340     0.40630
H1884       H  0.81413504  0.77143016  0.28757457     0.35520
C1885       C  0.64746230  0.75306585  0.72037420    -0.26210
C1886       C  0.62322762  0.74881224  0.69374310    -0.14280
C1887       C  0.59882733  0.74405168  0.72093382     0.36350
C1888       C  0.59945842  0.74334826  0.77404036    -0.25660
C1889       C  0.62363595  0.74804299  0.80062603    -0.14900
C1890       C  0.64788653  0.75291727  0.77362429     0.37430
N1891       N  0.67286917  0.75727602  0.80043339    -0.89150
H1892       H  0.66609301  0.75666439  0.69947274     0.18550
H1893       H  0.58080852  0.73952541  0.79477049     0.18540
N1894       N  0.57324202  0.73933075  0.69623883    -0.88170
H1895       H  0.68884811  0.76069108  0.77505889     0.35920
H1896       H  0.67722693  0.73802360  0.81971980     0.41010
H1897       H  0.57508351  0.73954431  0.65690567     0.40630
H1898       H  0.56048382  0.75660744  0.70598006     0.35520
C1899       C  0.65008264  0.75474464  0.27588386    -0.26210
C1900       C  0.62512113  0.75342931  0.30137548    -0.14280
C1901       C  0.60082362  0.75314722  0.27341555     0.36350
C1902       C  0.60207343  0.75393088  0.22042165    -0.25660
C1903       C  0.62704110  0.75424708  0.19470151    -0.14900
C1904       C  0.65134573  0.75492807  0.22275722     0.37430
N1905       N  0.67713821  0.75594837  0.19737268    -0.89150
H1906       H  0.66868930  0.75516969  0.29757558     0.18550
H1907       H  0.58337047  0.75339056  0.19904270     0.18540
N1908       N  0.57498588  0.75287745  0.29877785    -0.88170
H1909       H  0.69297173  0.75603642  0.22358876     0.35920
H1910       H  0.67822170  0.77569989  0.17797191     0.41010
H1911       H  0.57249824  0.73236859  0.31505959     0.40630
H1912       H  0.55922623  0.75510804  0.27270047     0.35520
C1913       C  0.73407466  0.75932295  0.46321362    -0.26210
C1914       C  0.72337101  0.73841095  0.49686540    -0.14280
C1915       C  0.73947125  0.72904918  0.53737676     0.36350
C1916       C  0.76543436  0.74082788  0.54391122    -0.25660
C1917       C  0.77635737  0.76151285  0.50997885    -0.14900
C1918       C  0.76014322  0.77079038  0.46908916     0.37430
N1919       N  0.76909544  0.79224290  0.43355367    -0.89150
H1920       H  0.72185436  0.76756396  0.43240725     0.18550
H1921       H  0.77749263  0.73263658  0.57497034     0.18540
N1922       N  0.72983382  0.70723677  0.57157586    -0.88170
H1923       H  0.78543211  0.78397069  0.41286497     0.35920
H1924       H  0.77522722  0.81074969  0.45347290     0.41010
H1925       H  0.73014165  0.71590109  0.60816379     0.40630
H1926       H  0.74335390  0.68974653  0.57037056     0.35520
C1927       C  0.51601110  0.74146760  0.46554919    -0.26210
C1928       C  0.52638098  0.76187844  0.50054850    -0.14280
C1929       C  0.51000109  0.76977637  0.54222949     0.36350
C1930       C  0.98420849  0.75751256  0.54756151    -0.25660
C1931       C  0.97374932  0.73724598  0.51237765    -0.14900
C1932       C  0.99022694  0.72918214  0.47089226     0.37430
N1933       N  0.98179396  0.70826063  0.43396079    -0.89150
H1934       H  0.52828544  0.73423848  0.43388424     0.18550
H1935       H  0.97197335  0.76473404  0.57928070     0.18540
N1936       N  0.51850201  0.79061959  0.57924319    -0.88170
H1937       H  0.46524384  0.71650159  0.41405408     0.35920
H1938       H  0.97616338  0.68915683  0.45260543     0.41010
H1939       H  0.52410032  0.80976739  0.56070203     0.40630
H1940       H  0.03510800  0.78233437  0.59893575     0.35520
C1941       C  0.77499613  0.49491104  0.76874192    -0.26210
C1942       C  0.75083568  0.50060361  0.79529441    -0.14280
C1943       C  0.72682074  0.00635442  0.76773865     0.36350
C1944       C  0.72780053  0.00712665  0.71469077    -0.25660
C1945       C  0.75187636  0.50127181  0.68846948    -0.14900
C1946       C  0.77576522  0.49518473  0.71560088     0.37430
N1947       N  0.80077578  0.48982843  0.68910829    -0.89150
H1948       H  0.79346717  0.49058925  0.78947774     0.18550
H1949       H  0.70944985  0.01144460  0.69354122     0.18540
N1950       N  0.70139967  0.01078931  0.79341024    -0.88170
H1951       H  0.81644728  0.48564684  0.71463135     0.35920
H1952       H  0.80602177  0.50889498  0.66995828     0.41010
H1953       H  0.69618185  0.99121896  0.81098883     0.40630
H1954       H  0.68595085  0.01526971  0.76756995     0.35520
C1955       C  0.72754371  0.50745693  0.26925078    -0.26210
C1956       C  0.75021921  0.49618387  0.29444090    -0.14280
C1957       C  0.77223149  0.98492143  0.26597093     0.36350
C1958       C  0.77093349  0.98539390  0.21302445    -0.25660
C1959       C  0.74846932  0.49713467  0.18805702    -0.14900
C1960       C  0.72654998  0.50827050  0.21617491     0.37430
N1961       N  0.70348236  0.52039541  0.19066390    -0.89150
H1962       H  0.71076518  0.51610408  0.29114969     0.18550
H1963       H  0.78770649  0.97671134  0.19114805     0.18540
N1964       N  0.79569877  0.97203553  0.28905140    -0.88170
H1965       H  0.68918804  0.52788993  0.21689245     0.35920
H1966       H  0.69417179  0.50363275  0.17038003     0.41010
H1967       H  0.79397064  0.97086772  0.32832506     0.40630
H1968       H  0.81233501  0.98533594  0.28097580     0.35520
C1969       C  0.71852991  0.87123554  0.51965343    -0.26210
C1970       C  0.70701058  0.89857308  0.51125501    -0.14280
C1971       C  0.67833656  0.90108494  0.50836143     0.36350
C1972       C  0.66204579  0.87603206  0.51054300    -0.25660
C1973       C  0.67367944  0.84850677  0.51528217    -0.14900
C1974       C  0.70216480  0.84612001  0.52147802     0.37430
N1975       N  0.71438724  0.81808334  0.52879248    -0.89150
H1976       H  0.74035061  0.86932834  0.52271583     0.18550
H1977       H  0.64028019  0.87789314  0.50623058     0.18540
N1978       N  0.66585335  0.92914071  0.50241298    -0.88170
H1979       H  0.73540531  0.82001984  0.53249181     0.35920
H1980       H  0.70716630  0.80979643  0.56308578     0.41010
H1981       H  0.66994454  0.94125695  0.53500962     0.40630
H1982       H  0.64476867  0.92722784  0.50020050     0.35520
C1983       C  0.83534420  0.62408839  0.51951306    -0.26210
C1984       C  0.82648187  0.65088326  0.50095429    -0.14280
C1985       C  0.79967996  0.65345153  0.48217287     0.36350
C1986       C  0.78231670  0.62911428  0.48256659    -0.25660
C1987       C  0.79115029  0.60242011  0.50155611    -0.14900
C1988       C  0.81801090  0.59977047  0.51981175     0.37430
N1989       N  0.82746905  0.57239381  0.53922036    -0.89150
H1990       H  0.85567083  0.62227847  0.53460935     0.18550
H1991       H  0.76207480  0.63078608  0.46704025     0.18540
N1992       N  0.79051748  0.68049652  0.46106313    -0.88170
H1993       H  0.84722474  0.57437794  0.55303798     0.35920
H1994       H  0.82852428  0.55775147  0.50901388     0.41010
H1995       H  0.78914024  0.69554621  0.49050691     0.40630
H1996       H  0.77090365  0.67833255  0.44664269     0.35520
C1997       C  0.97979441  0.98181575  0.71565813    -0.26210
C1998       C  0.00028232  0.49698704  0.69010792    -0.14280
C1999       C  0.52061063  0.51149509  0.71811675     0.36350
C2000       C  0.51960168  0.51077058  0.77107761    -0.25660
C2001       C  0.99880287  0.49610590  0.79682079    -0.14900
C2002       C  0.97877315  0.98106955  0.76865124     0.37430
N2003       N  0.95785377  0.96388671  0.79199517    -0.89150
H2004       H  0.96442531  0.97038132  0.69416974     0.18550
H2005       H  0.53504382  0.52219987  0.79239055     0.18540
N2006       N  0.54243059  0.52721400  0.69441880    -0.88170
H2007       H  0.93932750  0.97420535  0.78538232     0.35920
H2008       H  0.96027296  0.96221602  0.83104901     0.41010
H2009       H  0.54138646  0.52631168  0.65502894     0.40630
H2010       H  0.56055550  0.51700090  0.70448528     0.35520
C2011       C  0.98386618  0.52151624  0.27033523    -0.26210
C2012       C  0.99995109  0.50134351  0.29625827    -0.14280
C2013       C  0.51604188  0.98136750  0.26859305     0.36350
C2014       C  0.51531902  0.98191534  0.21562150    -0.25660
C2015       C  0.99947855  0.50228621  0.18968109    -0.14900
C2016       C  0.98359069  0.52232832  0.21716069     0.37430
N2017       N  0.96691990  0.54301393  0.19097606    -0.89150
H2018       H  0.97156652  0.53673034  0.29172621     0.18550
H2019       H  0.52743144  0.96641292  0.19447371     0.18540
N2020       N  0.53272497  0.95980643  0.29261510    -0.88170
H2021       H  0.95657226  0.55625428  0.21676796     0.35920
H2022       H  0.95216467  0.53138422  0.17109748     0.41010
H2023       H  0.53112457  0.96049749  0.33195844     0.40630
H2024       H  0.55290522  0.96450996  0.28363988     0.35520
C2025       C  0.86161315  0.99454765  0.54557746    -0.26210
C2026       C  0.85033544  0.98876872  0.49790574    -0.14280
C2027       C  0.86435471  0.99780782  0.45398234     0.36350
C2028       C  0.88744312  0.51483823  0.45882043    -0.25660
C2029       C  0.89998717  0.51902330  0.50589414    -0.14900
C2030       C  0.88650308  0.50919011  0.55025901     0.37430
N2031       N  0.89744003  0.51294437  0.60022444    -0.89150
H2032       H  0.85046534  0.98878958  0.57952275     0.18550
H2033       H  0.89777615  0.52156616  0.42446413     0.18540
N2034       N  0.85539211  0.99037670  0.40375600    -0.88170
H2035       H  0.88342903  0.52509349  0.62116087     0.35920
H2036       H  0.91511885  0.52526718  0.59976695     0.41010
H2037       H  0.83970440  0.97514829  0.40499296     0.40630
H2038       H  0.87138584  0.97962694  0.38564408     0.35520
C2039       C  0.63771466  0.50781813  0.54410123    -0.26210
C2040       C  0.64965605  0.51329422  0.49679083    -0.14280
C2041       C  0.63560861  0.50525626  0.45237566     0.36350
C2042       C  0.61182793  0.98924793  0.45635202    -0.25660
C2043       C  0.59905620  0.98472824  0.50318476    -0.14900
C2044       C  0.61228024  0.99420031  0.54796978     0.37430
N2045       N  0.60046274  0.99133797  0.59752609    -0.89150
H2046       H  0.64866311  0.51313030  0.57839679     0.18550
H2047       H  0.60149530  0.98319300  0.42169284     0.18540
N2048       N  0.64520820  0.51268091  0.40251158    -0.88170
H2049       H  0.61335664  0.97821660  0.61895283     0.35920
H2050       H  0.58190493  0.98060783  0.59651695     0.41010
H2051       H  0.66138101  0.52728245  0.40444867     0.40630
H2052       H  0.62973766  0.52419126  0.38446026     0.35520
C2053       C  0.96762281  0.87099236  0.49292215    -0.26210
C2054       C  0.95526174  0.89831697  0.49305794    -0.14280
C2055       C  0.92652779  0.90011636  0.49334204     0.36350
C2056       C  0.91085938  0.87453480  0.49359093    -0.25660
C2057       C  0.92319645  0.84717266  0.49428262    -0.14900
C2058       C  0.95193024  0.84540143  0.49266161     0.37430
N2059       N  0.96508794  0.81756392  0.49001991    -0.89150
H2060       H  0.98954184  0.86962670  0.49183770     0.18550
H2061       H  0.88895265  0.87597885  0.49512218     0.18540
N2062       N  0.91334115  0.92800728  0.49465379    -0.88170
H2063       H  0.98613810  0.82006077  0.48859878     0.35920
H2064       H  0.95944682  0.80777320  0.45590692     0.41010
H2065       H  0.91830142  0.93798329  0.52898081     0.40630
H2066       H  0.89226365  0.92561548  0.49447338     0.35520
C2067       C  0.58915780  0.62524681  0.50237698    -0.26210
C2068       C  0.57720251  0.65248671  0.50917850    -0.14280
C2069       C  0.54878783  0.65429479  0.51692702     0.36350
C2070       C  0.53281301  0.62890436  0.51498293    -0.25660
C2071       C  0.54459420  0.60184829  0.50472751    -0.14900
C2072       C  0.57329757  0.60007057  0.49954585     0.37430
N2073       N  0.58709290  0.57296795  0.49200983    -0.89150
H2074       H  0.61088808  0.62361836  0.49693579     0.18550
H2075       H  0.51104989  0.63035410  0.51998902     0.18540
N2076       N  0.53626439  0.68198359  0.52646436    -0.88170
H2077       H  0.58171625  0.56430676  0.45690244     0.35920
H2078       H  0.58135978  0.55856812  0.52067152     0.41010
H2079       H  0.54382292  0.68985390  0.56077050     0.40630
H2080       H  0.51533639  0.67961422  0.53126026     0.35520
loop_ 
_geom_bond_atom_site_label_1 
_geom_bond_atom_site_label_2 
_geom_bond_distance 
_geom_bond_site_symmetry_2 
_ccdc_geom_bond_type 
Zn1           O5   1.909   1_455  S
Zn1           O6   1.897       .  S
Zn1          O10   1.967       .  S
Zn1          O17   2.007       .  S
Zn2         O525   1.986   1_455  S
Zn2           O7   2.024       .  S
Zn2           O9   2.060       .  S
Zn2          O13   2.083   1_455  S
Zn3        O1045   1.983       .  S
Zn3           O8   2.075       .  S
Zn3          O11   2.014       .  S
Zn3          O14   2.058       .  S
Zn4        O1565   1.908       .  S
Zn4          O12   1.895       .  S
Zn4          O15   1.965       .  S
Zn4          O16   2.012       .  S
O5         Zn522   1.986   1_645  S
O5        Zn1043   1.983       .  S
O5        Zn1564   1.908   1_545  S
O6          C538   1.263   1_545  A
O7          C539   1.273   1_455  A
O8         C1060   1.279       .  A
O9           C18   1.278       .  A
O10          C20   1.266       .  A
O11        C1059   1.272   1_545  A
O12         C541   1.263       .  A
O13        C1062   1.281       .  A
O14          C21   1.278       .  A
O15          C22   1.266       .  A
O16          C23   1.269       .  A
O17        C1583   1.268   1_455  A
C18         O526   1.263       .  A
C18         C483   1.468       .  S
C19         O527   1.273   1_655  A
C19        O1051   1.272   1_565  A
C19        C1478   1.469   1_655  S
C20        O1048   1.279       .  A
C20         C511   1.486       .  S
C21         O532   1.263       .  A
C21         C469   1.470       .  S
C22        O1053   1.281       .  A
C22         C494   1.485       .  S
C23        O1577   1.268       .  A
C23         C972   1.469       .  S
Zn24        O548   1.983       .  S
Zn24         O29   2.051       .  S
Zn24         O33   2.085       .  S
Zn24         O40   2.007       .  S
Zn25         O28   1.914   1_545  S
Zn25         O30   2.005       .  S
Zn25         O32   1.900       .  S
Zn25         O36   1.965       .  S
Zn26        O548   1.909       .  S
Zn26         O31   1.958       .  S
Zn26         O34   2.004       .  S
Zn26         O37   1.902       .  S
Zn27         O28   1.975   1_545  S
Zn27         O35   2.056       .  S
Zn27         O38   2.080       .  S
Zn27         O39   2.014       .  S
O28        Zn544   1.983       .  S
O28        Zn546   1.909       .  S
O29          C41   1.278       .  A
O30          C42   1.268   1_545  A
O31          C43   1.266       .  A
O32         C561   1.262   1_545  A
O33          C43   1.281       .  A
O34         C562   1.268       .  A
O35          C44   1.279       .  A
O36          C45   1.266       .  A
O37         C564   1.263       .  A
O38          C45   1.280       .  A
O39          C46   1.273       .  A
O40         C566   1.271       .  A
C41         O552   1.262       .  A
C41         C466   1.464       .  S
C42         O554   1.268       .  A
C42         C396   1.470       .  S
C43         C410   1.486       .  S
C44         O557   1.263   1_545  A
C44         C480   1.466       .  S
C45         C427   1.477       .  S
C46         O560   1.271   1_545  A
C46         C385   1.473       .  S
Zn47         O51   1.949       .  S
Zn47         O52   2.083       .  S
Zn47         O56   2.028       .  S
Zn47         O63   2.064       .  S
Zn48         O51   1.908       .  S
Zn48         O53   1.959       .  S
Zn48         O55   1.981       .  S
Zn48         O59   2.003       .  S
Zn49         O51   1.948       .  S
Zn49         O54   2.025       .  S
Zn49         O57   2.063       .  S
Zn49         O60   2.088       .  S
Zn50         O51   1.908       .  S
Zn50         O58   1.977       .  S
Zn50         O61   2.001       .  S
Zn50         O62   1.957       .  S
O52          C64   1.285       .  A
O53          C65   1.265       .  A
O54          C66   1.273       .  A
O55          C64   1.271       .  A
O56          C66   1.273       .  A
O57          C65   1.278       .  A
O58          C67   1.270       .  A
O59          C68   1.270       .  A
O60          C67   1.286       .  A
O61          C68   1.270       .  A
O62          C69   1.265       .  A
O63          C69   1.279       .  A
C64         C508   1.483       .  S
C65         C368   1.491       .  S
C66         C326   1.475       .  S
C67         C413   1.484       .  S
C68         C340   1.473       .  S
C69         C354   1.486       .  S
Zn70         O74   1.904       .  S
Zn70         O75   1.996       .  S
Zn70         O79   1.974       .  S
Zn70         O86   1.959       .  S
Zn71         O74   1.909       .  S
Zn71         O76   1.965       .  S
Zn71         O78   2.009       .  S
Zn71         O82   1.974       .  S
Zn72         O74   1.944       .  S
Zn72         O77   2.091       .  S
Zn72         O80   2.058       .  S
Zn72         O83   2.021       .  S
Zn73         O74   1.952       .  S
Zn73         O81   2.025       .  S
Zn73         O84   2.093       .  S
Zn73         O85   2.065       .  S
O75          C87   1.269       .  A
O76          C88   1.267       .  A
O77          C89   1.285       .  A
O78          C87   1.271       .  A
O79          C89   1.270       .  A
O80          C88   1.279       .  A
O81          C90   1.274       .  A
O82          C91   1.269       .  A
O83          C90   1.274       .  A
O84          C91   1.285       .  A
O85          C92   1.279       .  A
O86          C92   1.265       .  A
C87         C298   1.484       .  S
C88         C357   1.490       .  S
C89         C497   1.488       .  S
C90         C312   1.480       .  S
C91         C424   1.481       .  S
C92         C371   1.492       .  S
Zn93        O617   1.974   1_554  S
Zn93         O98   2.014       .  S
Zn93        O102   2.084       .  S
Zn93        O109   2.066       .  S
Zn94       O1137   1.976   1_444  S
Zn94         O99   2.085       .  S
Zn94        O101   2.025       .  S
Zn94        O105   2.091   1_455  S
Zn95       O1657   1.929   1_455  S
Zn95        O100   1.973       .  S
Zn95        O103   1.954       .  S
Zn95        O106   2.011       .  S
Zn96         O97   1.935   1_545  S
Zn96        O104   2.017       .  S
Zn96        O107   1.989       .  S
Zn96        O108   1.959   1_545  S
O97        Zn613   1.974   1_556  S
O97       Zn1134   1.976   1_566  S
O97       Zn1655   1.929       .  S
O98         C630   1.273       .  A
O99         C111   1.281       .  A
O100        C112   1.268       .  A
O101       C1150   1.274   1_455  A
O102       C1152   1.281   1_554  A
O103        C631   1.266   1_556  A
O104        C113   1.272   1_545  A
O105       C1154   1.283   1_554  A
O106       C1673   1.271   1_455  A
O107        C114   1.269       .  A
O108        C635   1.267   1_556  A
O109        C115   1.278       .  A
C110        O618   1.273   1_545  A
C110       O1141   1.274       .  A
C110        C455   1.473       .  S
C111        O623   1.266   1_554  A
C111        C256   1.477       .  S
C112       O1142   1.281   1_556  A
C112        C284   1.490       .  S
C113       O1666   1.271       .  A
C113        C441   1.475       .  S
C114       O1145   1.283   1_556  A
C114        C270   1.488       .  S
C115        O628   1.267   1_554  A
C115        C245   1.471       .  S
Zn116       O120   1.949   1_544  S
Zn116       O121   2.013       .  S
Zn116       O125   2.078       .  S
Zn116       O132   2.076       .  S
Zn117       O640   1.947   1_554  S
Zn117       O122   2.096       .  S
Zn117       O124   2.018       .  S
Zn117       O128   2.092       .  S
Zn118       O120   1.902   1_545  S
Zn118       O123   1.963       .  S
Zn118       O126   1.957   1_545  S
Zn118       O129   1.987       .  S
Zn119       O640   1.910       .  S
Zn119       O127   2.017       .  S
Zn119       O130   1.971       .  S
Zn119       O131   1.963       .  S
O120       Zn637   1.947   1_556  S
O120       Zn639   1.910       .  S
O121        C133   1.271   1_545  A
O122        C134   1.279   1_554  A
O123        C135   1.269       .  A
O124        C653   1.272       .  A
O125        C135   1.286   1_554  A
O126        C654   1.262       .  A
O127        C656   1.271       .  A
O128        C137   1.288   1_554  A
O129        C136   1.267       .  A
O130        C137   1.271       .  A
O131        C658   1.266   1_556  A
O132        C138   1.277       .  A
C133        O644   1.272       .  A
C133        C399   1.467       .  S
C134        O646   1.262       .  A
C134        C259   1.500   1_556  S
C135        C214   1.480       .  S
C136        O647   1.271   1_545  A
C136        C382   1.484       .  S
C137        C231   1.481       .  S
C138        O651   1.266   1_554  A
C138        C242   1.494       .  S
Zn139       O143   1.914   1_554  S
Zn139       O144   2.012       .  S
Zn139       O148   1.930       .  S
Zn139       O155   1.948       .  S
Zn140       O143   1.919   1_554  S
Zn140       O145   1.987       .  S
Zn140       O147   1.991       .  S
Zn140       O151   1.953       .  S
Zn141       O143   1.960       .  S
Zn141       O146   2.065       .  S
Zn141       O149   2.084       .  S
Zn141       O152   2.030       .  S
Zn142       O143   1.965       .  S
Zn142       O150   2.024       .  S
Zn142       O153   2.041       .  S
Zn142       O154   2.081       .  S
O144        C156   1.270       .  A
O145        C157   1.271   1_554  A
O146        C158   1.279       .  A
O147        C156   1.268       .  A
O148        C158   1.264   1_554  A
O149        C157   1.284       .  A
O150        C159   1.273       .  A
O151        C160   1.263       .  A
O152        C159   1.274       .  A
O153        C160   1.274   1_556  A
O154        C161   1.282       .  A
O155        C161   1.266   1_554  A
C156        C343   1.479       .  S
C157        C287   1.493       .  S
C158        C186   1.461       .  S
C159        C329   1.478       .  S
C160        C203   1.464   1_554  S
C161        C217   1.477       .  S
Zn162       O166   1.908       .  S
Zn162       O167   2.017       .  S
Zn162       O171   1.968       .  S
Zn162       O178   2.000       .  S
Zn163       O166   1.910       .  S
Zn163       O168   1.974       .  S
Zn163       O170   2.008       .  S
Zn163       O174   1.955       .  S
Zn164       O166   1.972   1_556  S
Zn164       O169   2.043       .  S
Zn164       O172   2.071       .  S
Zn164       O175   2.013       .  S
Zn165       O166   1.945   1_556  S
Zn165       O173   2.009       .  S
Zn165       O176   2.072       .  S
Zn165       O177   2.102       .  S
O167        C179   1.271       .  A
O168        C180   1.268       .  A
O169        C181   1.274   1_556  A
O170        C179   1.271       .  A
O171        C181   1.266       .  A
O172        C180   1.281   1_556  A
O173        C182   1.272       .  A
O174        C183   1.266       .  A
O175        C182   1.273       .  A
O176        C183   1.282   1_556  A
O177        C184   1.288   1_556  A
O178        C184   1.273       .  A
C179        C315   1.488       .  S
C180        C228   1.477       .  S
C181        C200   1.482       .  S
C182        C301   1.478       .  S
C183        C189   1.493   1_554  S
C184        C273   1.494   1_554  S
C185        C186   1.390   1_554  A
C185        C190   1.401       .  A
C185        H192   1.084       .  S
C186        C187   1.415       .  A
C187        C188   1.402       .  A
C187        N194   1.433       .  S
C188        C189   1.404       .  A
C188        H193   1.084       .  S
C189        C190   1.429   1_556  A
C190        N191   1.439       .  S
N191        H195   1.046       .  S
N191        H196   1.042       .  S
N194        H197   1.045       .  S
N194        H198   1.045       .  S
C199        C200   1.410       .  A
C199       C1244   1.390       .  A
C199        H206   1.084       .  S
C200        C201   1.416   1_554  A
C201       C1242   1.402       .  A
C201        N208   1.432       .  S
C202        C203   1.406       .  A
C202       C1241   1.402   1_455  A
C202        H207   1.084       .  S
C203        C204   1.407   1_556  A
C204       C1239   1.390   1_455  A
C204        N205   1.434       .  S
N205        H210   1.046       .  S
N205       H1249   1.044       .  S
N208        H211   1.046       .  S
N208       H1252   1.044       .  S
H209       N1245   1.044       .  S
H212       N1248   1.044       .  S
C213        C214   1.413   1_554  A
C213        C218   1.404       .  A
C213        H220   1.084       .  S
C214        C215   1.412       .  A
C215        C216   1.399       .  A
C215        N222   1.438       .  S
C216        C217   1.409       .  A
C216        H221   1.085       .  S
C217        C218   1.410   1_556  A
C218        N219   1.438       .  S
N219        H223   1.046   1_554  S
N219        H224   1.043       .  S
N222        H225   1.041       .  S
N222        H226   1.045   1_556  S
C227        C228   1.408   1_556  A
C227        C232   1.406       .  A
C227        H234   1.083       .  S
C228        C229   1.404       .  A
C229        C230   1.409       .  A
C229        N236   1.437       .  S
C230        C231   1.412   1_554  A
C230        H235   1.084       .  S
C231        C232   1.405       .  A
C232        N233   1.437       .  S
N233        H237   1.046       .  S
N233        H238   1.046       .  S
N236        H239   1.046       .  S
N236        H240   1.046       .  S
C241        C246   1.401       .  A
C241        C762   1.411   1_556  A
C241        H248   1.083       .  S
C242        C243   1.416       .  A
C242        C761   1.411   1_544  A
C243        C244   1.408       .  A
C243        N250   1.432       .  S
C244        C765   1.407   1_545  A
C244        H249   1.084       .  S
C245        C246   1.403   1_554  A
C245        C764   1.407       .  A
C246        N247   1.438       .  S
N247        H251   1.046       .  S
N247        H252   1.045       .  S
N250        H253   1.045       .  S
N250        H254   1.045       .  S
C255        C256   1.396   1_556  A
C255        C260   1.404       .  A
C255        H262   1.084       .  S
C256        C777   1.421   1_545  A
C257        C258   1.410       .  A
C257        C776   1.421       .  A
C257        N264   1.438       .  S
C258        C259   1.405       .  A
C258        H263   1.084       .  S
C259        C780   1.426   1_554  A
C260        C779   1.426   1_546  A
C260        N261   1.439       .  S
N261        H265   1.046       .  S
N261        H266   1.046       .  S
N264        H267   1.043       .  S
N264        H268   1.046       .  S
C269        C270   1.399       .  A
C269        C274   1.405       .  A
C269        H276   1.084       .  S
C270        C271   1.422   1_556  A
C271        C272   1.405       .  A
C271        N278   1.434       .  S
C272        C273   1.401   1_554  A
C272        H277   1.084       .  S
C273        C274   1.424       .  A
C274        N275   1.431       .  S
N275        H279   1.046       .  S
N275        H280   1.039       .  S
N278        H281   1.046       .  S
N278        H282   1.045   1_554  S
C283        C284   1.411       .  A
C283        C288   1.401       .  A
C283        H290   1.084       .  S
C284        C285   1.410   1_556  A
C285        C286   1.406       .  A
C285        N292   1.432       .  S
C286        C287   1.414   1_554  A
C286        H291   1.084       .  S
C287        C288   1.413       .  A
C288        N289   1.433       .  S
N289        H293   1.045       .  S
N289        H294   1.046   1_556  S
N292       H1335   1.046   1_454  S
N292       H1336   1.045   1_455  S
H295       N1332   1.046   1_556  S
H296       N1332   1.045       .  S
C297        C298   1.405       .  A
C297        C302   1.404       .  A
C297        H304   1.083       .  S
C298        C299   1.416       .  A
C299        C300   1.404       .  A
C299        N306   1.439       .  S
C300        C301   1.402       .  A
C300        H305   1.084       .  S
C301        C302   1.412       .  A
C302        N303   1.438       .  S
N303        H307   1.046       .  S
N303        H308   1.046       .  S
N306        H309   1.046       .  S
N306        H310   1.046       .  S
C311        C312   1.403       .  A
C311        C316   1.408       .  A
C311        H318   1.084       .  S
C312        C313   1.410       .  A
C313        C314   1.405       .  A
C313        N320   1.438       .  S
C314        C315   1.407       .  A
C314        H319   1.083       .  S
C315        C316   1.416       .  A
C316        N317   1.438       .  S
N317        H321   1.046       .  S
N317        H322   1.046       .  S
N320        H323   1.046       .  S
N320        H324   1.046       .  S
C325        C326   1.403       .  A
C325        C330   1.408       .  A
C325        H332   1.084       .  S
C326        C327   1.418       .  A
C327        C328   1.404       .  A
C327        N334   1.439       .  S
C328        C329   1.403       .  A
C328        H333   1.084       .  S
C329        C330   1.410       .  A
C330        N331   1.437       .  S
N331        H335   1.046       .  S
N331        H336   1.046       .  S
N334        H337   1.043       .  S
N334        H338   1.046       .  S
C339        C340   1.404       .  A
C339        C344   1.405       .  A
C339        H346   1.084       .  S
C340        C341   1.410       .  A
C341        C342   1.402       .  A
C341        N348   1.439       .  S
C342        C343   1.405       .  A
C342        H347   1.084       .  S
C343        C344   1.412       .  A
C344        N345   1.438       .  S
N345        H349   1.046       .  S
N345        H350   1.046       .  S
N348        H351   1.045       .  S
N348        H352   1.046       .  S
C353        C354   1.413       .  A
C353        C358   1.399       .  A
C353        H360   1.084       .  S
C354        C355   1.403       .  A
C355        C356   1.402       .  A
C355        N362   1.432       .  S
C356        C357   1.414       .  A
C356        H361   1.083       .  S
C357        C358   1.413       .  A
C358        N359   1.433       .  S
N359        H363   1.044       .  S
N359        H364   1.046       .  S
N362        H365   1.046       .  S
N362        H366   1.046       .  S
C367        C368   1.414       .  A
C367       C1412   1.399   1_455  A
C367        H374   1.084       .  S
C368        C369   1.412       .  A
C369       C1410   1.399   1_455  A
C369        N376   1.432       .  S
C370        C371   1.414       .  A
C370       C1409   1.399       .  A
C370        H375   1.083       .  S
C371        C372   1.412       .  A
C372       C1407   1.399       .  A
C372        N373   1.432       .  S
N373        H378   1.046       .  S
N373       H1417   1.044       .  S
N376        H379   1.046       .  S
N376       H1420   1.044       .  S
H377       N1413   1.044       .  S
H380       N1416   1.044       .  S
C381        C382   1.406   1_565  A
C381        C386   1.405       .  A
C381        H388   1.083       .  S
C382        C903   1.418       .  A
C383        C384   1.403       .  A
C383        C902   1.418       .  A
C383        N390   1.439       .  S
C384        C905   1.400       .  A
C384        H389   1.084       .  S
C385        C386   1.410   1_545  A
C385        C904   1.400       .  A
C386        N387   1.438       .  S
N387        H391   1.046       .  S
N387        H392   1.046   1_565  S
N390        H393   1.046       .  S
N390        H394   1.046       .  S
C395        C396   1.403   1_545  A
C395        C400   1.404       .  A
C395        H402   1.084       .  S
C396        C917   1.417       .  A
C397        C398   1.401       .  A
C397        C916   1.417       .  A
C397        N404   1.439       .  S
C398        C919   1.401       .  A
C398        H403   1.084       .  S
C399        C400   1.407   1_565  A
C399        C918   1.401       .  A
C400        N401   1.438       .  S
N401        H405   1.046       .  S
N401        H406   1.046       .  S
N404        H407   1.043       .  S
N404        H408   1.046       .  S
C409        C410   1.399       .  A
C409        C414   1.411       .  A
C409        H416   1.084       .  S
C410        C411   1.422       .  A
C411        C412   1.406       .  A
C411        N418   1.440       .  S
C412        C413   1.397       .  A
C412        H417   1.084       .  S
C413        C414   1.420       .  A
C414        N415   1.438       .  S
N415        H419   1.046       .  S
N415        H420   1.045       .  S
N418        H421   1.046       .  S
N418        H422   1.046       .  S
C423        C424   1.398       .  A
C423        C428   1.408       .  A
C423        H430   1.084       .  S
C424        C425   1.419       .  A
C425        C426   1.410       .  A
C425        N432   1.438       .  S
C426        C427   1.398       .  A
C426        H431   1.084       .  S
C427        C428   1.417       .  A
C428        N429   1.439       .  S
N429        H433   1.046       .  S
N429        H434   1.045       .  S
N432        H435   1.043       .  S
N432        H436   1.046       .  S
C437        C442   1.402       .  A
C437        C958   1.401       .  A
C437        H444   1.084       .  S
C438       C1059   1.469       .  S
C438        C957   1.401       .  A
C438       C1479   1.415   1_565  A
C439        C440   1.401       .  A
C439       C1478   1.415   1_545  A
C439        N446   1.439       .  S
C440       C1481   1.403   1_445  A
C440        H445   1.084       .  S
C441       C1480   1.403   1_565  A
C441        C962   1.418       .  A
C442        C961   1.418       .  A
C442        N443   1.438       .  S
N443        H447   1.045       .  S
N443        H448   1.042       .  S
N446        H449   1.043       .  S
N446        H450   1.046       .  S
C451        C452   1.402       .  A
C451        C456   1.406       .  A
C451        H458   1.084       .  S
C452        C543   1.469       .  S
C452       C2013   1.416   1_545  A
C453        C454   1.401       .  A
C453       C2012   1.416   1_455  A
C453        N460   1.439       .  S
C454       C2015   1.402   1_455  A
C454        H459   1.084       .  S
C455        C456   1.410       .  A
C455       C2014   1.402   1_545  A
C456        N457   1.438       .  S
N457        H461   1.046       .  S
N457        H462   1.046       .  S
N460        H463   1.043       .  S
N460        H464   1.046       .  S
C465        C466   1.404       .  A
C465        C990   1.406       .  A
C465        H472   1.084       .  S
C466        C467   1.413       .  A
C467        C988   1.389       .  A
C467        N474   1.441       .  S
C468        C469   1.404       .  A
C468        C987   1.389   1_545  A
C468        H473   1.086       .  S
C469        C470   1.421       .  A
C470        C985   1.406   1_545  A
C470        N471   1.438       .  S
N471        H475   1.046       .  S
N471        H476   1.040       .  S
N474        H477   1.045       .  S
N474        H478   1.046       .  S
C479        C480   1.404       .  A
C479       C1004   1.406   1_545  A
C479        H486   1.084       .  S
C480        C481   1.414       .  A
C481       C1002   1.389   1_545  A
C481        N488   1.441       .  S
C482        C483   1.403       .  A
C482       C1001   1.389       .  A
C482        H487   1.086       .  S
C483        C484   1.421       .  A
C484        C999   1.406       .  A
C484        N485   1.438       .  S
N485        H489   1.046       .  S
N485        H490   1.041       .  S
N488        H491   1.044       .  S
N488        H492   1.046       .  S
C493        C494   1.398       .  A
C493        C498   1.409       .  A
C493        H500   1.084       .  S
C494        C495   1.420       .  A
C495        C496   1.408       .  A
C495        N502   1.439       .  S
C496        C497   1.399       .  A
C496        H501   1.084       .  S
C497        C498   1.421       .  A
C498        N499   1.438       .  S
N499        H503   1.046       .  S
N499        H504   1.046       .  S
N502        H505   1.046       .  S
N502        H506   1.046       .  S
C507        C508   1.397       .  A
C507        C512   1.400       .  A
C507        H514   1.084       .  S
C508        C509   1.419       .  A
C509        C510   1.410       .  A
C509        N516   1.438       .  S
C510        C511   1.400       .  A
C510        H515   1.084       .  S
C511        C512   1.425       .  A
C512        N513   1.434       .  S
N513        H517   1.044       .  S
N513        H518   1.046       .  S
N516        H519   1.046       .  S
N516        H520   1.046       .  S
Zn521       O525   1.909   1_455  S
Zn521       O526   1.897       .  S
Zn521       O530   1.967       .  S
Zn521       O537   2.007       .  S
Zn522       O527   2.024       .  S
Zn522       O529   2.060       .  S
Zn522       O533   2.083   1_455  S
Zn523      O1565   1.983       .  S
Zn523       O528   2.075       .  S
Zn523       O531   2.014       .  S
Zn523       O534   2.058       .  S
Zn524      O1045   1.908   1_565  S
Zn524       O532   1.895   1_565  S
Zn524       O535   1.965       .  S
Zn524       O536   2.012       .  S
O525      Zn1563   1.983       .  S
O525      Zn1044   1.908       .  S
O528       C1580   1.279       .  A
O529        C538   1.278       .  A
O530        C540   1.266       .  A
O531       C1579   1.272       .  A
O533       C1582   1.281       .  A
O534        C541   1.278       .  A
O535        C542   1.266       .  A
O536        C543   1.269   1_565  A
O537       C1063   1.268   1_455  A
C538       C1003   1.468       .  S
C539       O1571   1.272       .  A
C539       C1998   1.469   1_655  S
C540       O1568   1.279       .  A
C540       C1031   1.486       .  S
C541        C989   1.470       .  S
C542       O1573   1.281       .  A
C542       C1014   1.485       .  S
C543       O1057   1.268       .  A
Zn544       O549   2.051       .  S
Zn544       O553   2.085       .  S
Zn544       O560   2.007       .  S
Zn545       O548   1.914       .  S
Zn545       O550   2.005       .  S
Zn545       O552   1.900       .  S
Zn545       O556   1.965       .  S
Zn546       O551   1.958       .  S
Zn546       O554   2.004       .  S
Zn546       O557   1.902       .  S
Zn547       O548   1.975       .  S
Zn547       O555   2.056       .  S
Zn547       O558   2.080       .  S
Zn547       O559   2.014       .  S
O549        C561   1.278       .  A
O550        C562   1.268       .  A
O551        C563   1.266       .  A
O553        C563   1.281       .  A
O555        C564   1.279       .  A
O556        C565   1.266       .  A
O558        C565   1.280       .  A
O559        C566   1.273       .  A
C561        C986   1.464       .  S
C562        C916   1.470       .  S
C563        C930   1.486       .  S
C564       C1000   1.466       .  S
C565        C947   1.477       .  S
C566        C905   1.473       .  S
Zn567       O571   1.949       .  S
Zn567       O572   2.083       .  S
Zn567       O576   2.028       .  S
Zn567       O583   2.064       .  S
Zn568       O571   1.908       .  S
Zn568       O573   1.959       .  S
Zn568       O575   1.981       .  S
Zn568       O579   2.003       .  S
Zn569       O571   1.948       .  S
Zn569       O574   2.025       .  S
Zn569       O577   2.063       .  S
Zn569       O580   2.088       .  S
Zn570       O571   1.908       .  S
Zn570       O578   1.977       .  S
Zn570       O581   2.001       .  S
Zn570       O582   1.957       .  S
O572        C584   1.285       .  A
O573        C585   1.265       .  A
O574        C586   1.273       .  A
O575        C584   1.271       .  A
O576        C586   1.273       .  A
O577        C585   1.278       .  A
O578        C587   1.270       .  A
O579        C588   1.270       .  A
O580        C587   1.286       .  A
O581        C588   1.270       .  A
O582        C589   1.265       .  A
O583        C589   1.279       .  A
C584       C1028   1.483       .  S
C585        C888   1.491       .  S
C586        C846   1.475       .  S
C587        C933   1.484       .  S
C588        C860   1.473       .  S
C589        C874   1.486       .  S
Zn590       O594   1.904       .  S
Zn590       O595   1.996       .  S
Zn590       O599   1.974       .  S
Zn590       O606   1.959       .  S
Zn591       O594   1.909       .  S
Zn591       O596   1.965       .  S
Zn591       O598   2.009       .  S
Zn591       O602   1.974       .  S
Zn592       O594   1.944       .  S
Zn592       O597   2.091       .  S
Zn592       O600   2.058       .  S
Zn592       O603   2.021       .  S
Zn593       O594   1.952       .  S
Zn593       O601   2.025       .  S
Zn593       O604   2.093       .  S
Zn593       O605   2.065       .  S
O595        C607   1.269       .  A
O596        C608   1.267       .  A
O597        C609   1.285       .  A
O598        C607   1.271       .  A
O599        C609   1.270       .  A
O600        C608   1.279       .  A
O601        C610   1.274       .  A
O602        C611   1.269       .  A
O603        C610   1.274       .  A
O604        C611   1.285       .  A
O605        C612   1.279       .  A
O606        C612   1.265       .  A
C607        C818   1.484       .  S
C608        C877   1.490       .  S
C609       C1017   1.488       .  S
C610        C832   1.480       .  S
C611        C944   1.481       .  S
C612        C891   1.492       .  S
Zn613       O618   2.014       .  S
Zn613       O622   2.084       .  S
Zn613       O629   2.066       .  S
Zn614      O1657   1.976   1_454  S
Zn614       O619   2.085       .  S
Zn614       O621   2.025       .  S
Zn614       O625   2.091   1_455  S
Zn615      O1137   1.929   1_455  S
Zn615       O620   1.973       .  S
Zn615       O623   1.954   1_565  S
Zn615       O626   2.011       .  S
Zn616       O617   1.935       .  S
Zn616       O624   2.017       .  S
Zn616       O627   1.989       .  S
Zn616       O628   1.959       .  S
O617      Zn1654   1.976   1_556  S
O617      Zn1135   1.929       .  S
O619        C631   1.281       .  A
O620        C632   1.268       .  A
O621       C1670   1.274   1_455  A
O622       C1672   1.281   1_554  A
O624        C633   1.272       .  A
O625       C1674   1.283   1_554  A
O626       C1153   1.271   1_455  A
O627        C634   1.269       .  A
O629        C635   1.278       .  A
C630       O1661   1.274       .  A
C630        C975   1.473       .  S
C631        C776   1.477       .  S
C632       O1662   1.281   1_556  A
C632        C804   1.490       .  S
C633       O1146   1.271       .  A
C633        C961   1.475       .  S
C634       O1665   1.283   1_556  A
C634        C790   1.488       .  S
C635        C765   1.471       .  S
Zn636       O640   1.949   1_554  S
Zn636       O641   2.013       .  S
Zn636       O645   2.078       .  S
Zn636       O652   2.076       .  S
Zn637       O642   2.096       .  S
Zn637       O644   2.018       .  S
Zn637       O648   2.092       .  S
Zn638       O640   1.902       .  S
Zn638       O643   1.963       .  S
Zn638       O646   1.957       .  S
Zn638       O649   1.987       .  S
Zn639       O647   2.017       .  S
Zn639       O650   1.971       .  S
Zn639       O651   1.963   1_565  S
O641        C653   1.271       .  A
O642        C654   1.279   1_554  A
O643        C655   1.269       .  A
O645        C655   1.286   1_554  A
O648        C657   1.288   1_554  A
O649        C656   1.267       .  A
O650        C657   1.271       .  A
O652        C658   1.277       .  A
C653        C919   1.467       .  S
C654        C779   1.500   1_556  S
C655        C734   1.480       .  S
C656        C902   1.484       .  S
C657        C751   1.481       .  S
C658        C762   1.494       .  S
Zn659       O663   1.914   1_554  S
Zn659       O664   2.012       .  S
Zn659       O668   1.930       .  S
Zn659       O675   1.948       .  S
Zn660       O663   1.919   1_554  S
Zn660       O665   1.987       .  S
Zn660       O667   1.991       .  S
Zn660       O671   1.953       .  S
Zn661       O663   1.960       .  S
Zn661       O666   2.065       .  S
Zn661       O669   2.084       .  S
Zn661       O672   2.030       .  S
Zn662       O663   1.965       .  S
Zn662       O670   2.024       .  S
Zn662       O673   2.041       .  S
Zn662       O674   2.081       .  S
O664        C676   1.270       .  A
O665        C677   1.271   1_554  A
O666        C678   1.279       .  A
O667        C676   1.268       .  A
O668        C678   1.264   1_554  A
O669        C677   1.284       .  A
O670        C679   1.273       .  A
O671        C680   1.263       .  A
O672        C679   1.274       .  A
O673        C680   1.274   1_556  A
O674        C681   1.282       .  A
O675        C681   1.266   1_554  A
C676        C863   1.479       .  S
C677        C807   1.493       .  S
C678        C706   1.461       .  S
C679        C849   1.478       .  S
C680        C723   1.464   1_554  S
C681        C737   1.477       .  S
Zn682       O686   1.908       .  S
Zn682       O687   2.017       .  S
Zn682       O691   1.968       .  S
Zn682       O698   2.000       .  S
Zn683       O686   1.910       .  S
Zn683       O688   1.974       .  S
Zn683       O690   2.008       .  S
Zn683       O694   1.955       .  S
Zn684       O686   1.972   1_556  S
Zn684       O689   2.043       .  S
Zn684       O692   2.071       .  S
Zn684       O695   2.013       .  S
Zn685       O686   1.945   1_556  S
Zn685       O693   2.009       .  S
Zn685       O696   2.072       .  S
Zn685       O697   2.102       .  S
O687        C699   1.271       .  A
O688        C700   1.268       .  A
O689        C701   1.274   1_556  A
O690        C699   1.271       .  A
O691        C701   1.266       .  A
O692        C700   1.281   1_556  A
O693        C702   1.272       .  A
O694        C703   1.266       .  A
O695        C702   1.273       .  A
O696        C703   1.282   1_556  A
O697        C704   1.288   1_556  A
O698        C704   1.273       .  A
C699        C835   1.488       .  S
C700        C748   1.477       .  S
C701        C720   1.482       .  S
C702        C821   1.478       .  S
C703        C709   1.493   1_554  S
C704        C793   1.494   1_554  S
C705        C706   1.390   1_554  A
C705        C710   1.401       .  A
C705        H712   1.084       .  S
C706        C707   1.415       .  A
C707        C708   1.402       .  A
C707        N714   1.433       .  S
C708        C709   1.404       .  A
C708        H713   1.084       .  S
C709        C710   1.429   1_556  A
C710        N711   1.439       .  S
N711        H715   1.046       .  S
N711        H716   1.042       .  S
N714        H717   1.045       .  S
N714        H718   1.045       .  S
C719        C720   1.410       .  A
C719       C1764   1.390       .  A
C719        H726   1.084       .  S
C720        C721   1.416   1_554  A
C721       C1762   1.402       .  A
C721        N728   1.432       .  S
C722       C1761   1.402   1_455  A
C722        C723   1.406       .  A
C722        H727   1.084       .  S
C723        C724   1.407   1_556  A
C724       C1759   1.390   1_455  A
C724        N725   1.434       .  S
N725       H1769   1.044       .  S
N725        H730   1.046       .  S
N728        H731   1.046       .  S
N728       H1772   1.044       .  S
H729       N1765   1.044       .  S
H732       N1768   1.044       .  S
C733        C734   1.413   1_554  A
C733        C738   1.404       .  A
C733        H740   1.084       .  S
C734        C735   1.412       .  A
C735        C736   1.399       .  A
C735        N742   1.438       .  S
C736        C737   1.409       .  A
C736        H741   1.085       .  S
C737        C738   1.410   1_556  A
C738        N739   1.438       .  S
N739        H743   1.046   1_554  S
N739        H744   1.043       .  S
N742        H745   1.041       .  S
N742        H746   1.045   1_556  S
C747        C748   1.408   1_556  A
C747        C752   1.406       .  A
C747        H754   1.083       .  S
C748        C749   1.404       .  A
C749        C750   1.409       .  A
C749        N756   1.437       .  S
C750        C751   1.412   1_554  A
C750        H755   1.084       .  S
C751        C752   1.405       .  A
C752        N753   1.437       .  S
N753        H757   1.046       .  S
N753        H758   1.046       .  S
N756        H759   1.046       .  S
N756        H760   1.046       .  S
C761        C766   1.401       .  A
C761        H768   1.083       .  S
C762        C763   1.416       .  A
C763        C764   1.408       .  A
C763        N770   1.432       .  S
C764        H769   1.084       .  S
C765        C766   1.403   1_554  A
C766        N767   1.438       .  S
N767        H771   1.046       .  S
N767        H772   1.045       .  S
N770        H773   1.045       .  S
N770        H774   1.045       .  S
C775        C776   1.396   1_556  A
C775        C780   1.404       .  A
C775        H782   1.084       .  S
C777        C778   1.410       .  A
C777        N784   1.438       .  S
C778        C779   1.405       .  A
C778        H783   1.084       .  S
C780        N781   1.439       .  S
N781        H785   1.046       .  S
N781        H786   1.046       .  S
N784        H787   1.043       .  S
N784        H788   1.046       .  S
C789        C790   1.399       .  A
C789        C794   1.405       .  A
C789        H796   1.084       .  S
C790        C791   1.422   1_556  A
C791        C792   1.405       .  A
C791        N798   1.434       .  S
C792        C793   1.401   1_554  A
C792        H797   1.084       .  S
C793        C794   1.424       .  A
C794        N795   1.431       .  S
N795        H799   1.046       .  S
N795        H800   1.039       .  S
N798        H801   1.046       .  S
N798        H802   1.045   1_554  S
C803        C804   1.411       .  A
C803        C808   1.401       .  A
C803        H810   1.084       .  S
C804        C805   1.410   1_556  A
C805        C806   1.406       .  A
C805        N812   1.432       .  S
C806        C807   1.414   1_554  A
C806        H811   1.084       .  S
C807        C808   1.413       .  A
C808        N809   1.433       .  S
N809        H813   1.045       .  S
N809        H814   1.046   1_556  S
N812       H1855   1.046   1_454  S
N812       H1856   1.045   1_455  S
H815       N1852   1.046   1_556  S
H816       N1852   1.045       .  S
C817        C818   1.405       .  A
C817        C822   1.404       .  A
C817        H824   1.083       .  S
C818        C819   1.416       .  A
C819        C820   1.404       .  A
C819        N826   1.439       .  S
C820        C821   1.402       .  A
C820        H825   1.084       .  S
C821        C822   1.412       .  A
C822        N823   1.438       .  S
N823        H827   1.046       .  S
N823        H828   1.046       .  S
N826        H829   1.046       .  S
N826        H830   1.046       .  S
C831        C832   1.403       .  A
C831        C836   1.408       .  A
C831        H838   1.084       .  S
C832        C833   1.410       .  A
C833        C834   1.405       .  A
C833        N840   1.438       .  S
C834        C835   1.407       .  A
C834        H839   1.083       .  S
C835        C836   1.416       .  A
C836        N837   1.438       .  S
N837        H841   1.046       .  S
N837        H842   1.046       .  S
N840        H843   1.046       .  S
N840        H844   1.046       .  S
C845        C846   1.403       .  A
C845        C850   1.408       .  A
C845        H852   1.084       .  S
C846        C847   1.418       .  A
C847        C848   1.404       .  A
C847        N854   1.439       .  S
C848        C849   1.403       .  A
C848        H853   1.084       .  S
C849        C850   1.410       .  A
C850        N851   1.437       .  S
N851        H855   1.046       .  S
N851        H856   1.046       .  S
N854        H857   1.043       .  S
N854        H858   1.046       .  S
C859        C860   1.404       .  A
C859        C864   1.405       .  A
C859        H866   1.084       .  S
C860        C861   1.410       .  A
C861        C862   1.402       .  A
C861        N868   1.439       .  S
C862        C863   1.405       .  A
C862        H867   1.084       .  S
C863        C864   1.412       .  A
C864        N865   1.438       .  S
N865        H869   1.046       .  S
N865        H870   1.046       .  S
N868        H871   1.045       .  S
N868        H872   1.046       .  S
C873        C874   1.413       .  A
C873        C878   1.399       .  A
C873        H880   1.084       .  S
C874        C875   1.403       .  A
C875        C876   1.402       .  A
C875        N882   1.432       .  S
C876        C877   1.414       .  A
C876        H881   1.083       .  S
C877        C878   1.413       .  A
C878        N879   1.433       .  S
N879        H883   1.044       .  S
N879        H884   1.046       .  S
N882        H885   1.046       .  S
N882        H886   1.046       .  S
C887        C888   1.414       .  A
C887       C1932   1.399   1_455  A
C887        H894   1.084       .  S
C888        C889   1.412       .  A
C889       C1930   1.399   1_455  A
C889        N896   1.432       .  S
C890       C1929   1.399       .  A
C890        C891   1.414       .  A
C890        H895   1.083       .  S
C891        C892   1.412       .  A
C892       C1927   1.399       .  A
C892        N893   1.432       .  S
N893       H1937   1.044       .  S
N893        H898   1.046       .  S
N896        H899   1.046       .  S
N896       H1940   1.044       .  S
H897       N1933   1.044       .  S
H900       N1936   1.044       .  S
C901        C902   1.406       .  A
C901        C906   1.405       .  A
C901        H908   1.083       .  S
C903        C904   1.403       .  A
C903        N910   1.439       .  S
C904        H909   1.084       .  S
C905        C906   1.410       .  A
C906        N907   1.438       .  S
N907        H911   1.046       .  S
N907        H912   1.046       .  S
N910        H913   1.046   1_545  S
N910        H914   1.046       .  S
C915        C916   1.403       .  A
C915        C920   1.404       .  A
C915        H922   1.084       .  S
C917        C918   1.401       .  A
C917        N924   1.439       .  S
C918        H923   1.084       .  S
C919        C920   1.407       .  A
C920        N921   1.438       .  S
N921        H925   1.046       .  S
N921        H926   1.046       .  S
N924        H927   1.043       .  S
N924        H928   1.046       .  S
C929        C930   1.399       .  A
C929        C934   1.411       .  A
C929        H936   1.084       .  S
C930        C931   1.422       .  A
C931        C932   1.406       .  A
C931        N938   1.440       .  S
C932        C933   1.397       .  A
C932        H937   1.084       .  S
C933        C934   1.420       .  A
C934        N935   1.438       .  S
N935        H939   1.046       .  S
N935        H940   1.045       .  S
N938        H941   1.046       .  S
N938        H942   1.046       .  S
C943        C944   1.398       .  A
C943        C948   1.408       .  A
C943        H950   1.084       .  S
C944        C945   1.419       .  A
C945        C946   1.410       .  A
C945        N952   1.438       .  S
C946        C947   1.398       .  A
C946        H951   1.084       .  S
C947        C948   1.417       .  A
C948        N949   1.439       .  S
N949        H953   1.046       .  S
N949        H954   1.045       .  S
N952        H955   1.043       .  S
N952        H956   1.046       .  S
C957        C962   1.402       .  A
C957        H964   1.084       .  S
C958       C1579   1.469       .  S
C958       C1999   1.415       .  A
C959       C1998   1.415       .  A
C959        C960   1.401       .  A
C959        N966   1.439       .  S
C960       C2001   1.403   1_455  A
C960        H965   1.084       .  S
C961       C2000   1.403       .  A
C962        N963   1.438       .  S
N963        H967   1.045       .  S
N963        H968   1.042       .  S
N966        H969   1.043       .  S
N966        H970   1.046       .  S
C971        C972   1.402       .  A
C971        C976   1.406       .  A
C971        H978   1.084       .  S
C972       C1493   1.416       .  A
C973       C1492   1.416   1_465  A
C973        C974   1.401       .  A
C973        N980   1.439       .  S
C974       C1495   1.402   1_465  A
C974        H979   1.084       .  S
C975       C1494   1.402       .  A
C975        C976   1.410       .  A
C976        N977   1.438       .  S
N977        H981   1.046       .  S
N977        H982   1.046       .  S
N980        H983   1.043       .  S
N980        H984   1.046       .  S
C985        C986   1.404       .  A
C985        H992   1.084       .  S
C986        C987   1.413       .  A
C987        N994   1.441       .  S
C988        C989   1.404       .  A
C988        H993   1.086       .  S
C989        C990   1.421       .  A
C990        N991   1.438       .  S
N991        H995   1.046       .  S
N991        H996   1.040       .  S
N994        H997   1.045       .  S
N994        H998   1.046       .  S
C999       C1000   1.404       .  A
C999       H1006   1.084       .  S
C1000      C1001   1.414       .  A
C1001      N1008   1.441       .  S
C1002      C1003   1.403       .  A
C1002      H1007   1.086       .  S
C1003      C1004   1.421       .  A
C1004      N1005   1.438       .  S
N1005      H1009   1.046       .  S
N1005      H1010   1.041       .  S
N1008      H1011   1.044       .  S
N1008      H1012   1.046       .  S
C1013      C1014   1.398       .  A
C1013      C1018   1.409       .  A
C1013      H1020   1.084       .  S
C1014      C1015   1.420       .  A
C1015      C1016   1.408       .  A
C1015      N1022   1.439       .  S
C1016      C1017   1.399       .  A
C1016      H1021   1.084       .  S
C1017      C1018   1.421       .  A
C1018      N1019   1.438       .  S
N1019      H1023   1.046       .  S
N1019      H1024   1.046       .  S
N1022      H1025   1.046       .  S
N1022      H1026   1.046       .  S
C1027      C1028   1.397       .  A
C1027      C1032   1.400       .  A
C1027      H1034   1.084       .  S
C1028      C1029   1.419       .  A
C1029      C1030   1.410       .  A
C1029      N1036   1.438       .  S
C1030      C1031   1.400       .  A
C1030      H1035   1.084       .  S
C1031      C1032   1.425       .  A
C1032      N1033   1.434       .  S
N1033      H1037   1.044       .  S
N1033      H1038   1.046       .  S
N1036      H1039   1.046       .  S
N1036      H1040   1.046       .  S
Zn1041     O1045   1.909       .  S
Zn1041     O1046   1.897       .  S
Zn1041     O1050   1.967       .  S
Zn1041     O1057   2.007       .  S
Zn1042     O1565   1.986       .  S
Zn1042     O1047   2.024       .  S
Zn1042     O1049   2.060       .  S
Zn1042     O1053   2.083       .  S
Zn1043     O1048   2.075   1_655  S
Zn1043     O1051   2.014       .  S
Zn1043     O1054   2.058       .  S
Zn1044     O1052   1.895       .  S
Zn1044     O1055   1.965       .  S
Zn1044     O1056   2.012       .  S
O1045     Zn1562   1.986   1_545  S
O1046      C1578   1.263   1_545  A
O1047      C1579   1.273       .  A
O1049      C1058   1.278       .  A
O1050      C1060   1.266       .  A
O1052      C1581   1.263       .  A
O1054      C1061   1.278       .  A
O1055      C1062   1.266       .  A
O1056      C1063   1.269       .  A
C1058      O1566   1.263       .  A
C1058      C1523   1.468       .  S
C1059      O1567   1.273       .  A
C1060      C1551   1.486       .  S
C1061      O1572   1.263       .  A
C1061      C1509   1.470       .  S
C1062      C1534   1.485       .  S
C1063      C2012   1.469       .  S
Zn1064     O1588   1.983       .  S
Zn1064     O1069   2.051       .  S
Zn1064     O1073   2.085       .  S
Zn1064     O1080   2.007       .  S
Zn1065     O1068   1.914   1_545  S
Zn1065     O1070   2.005       .  S
Zn1065     O1072   1.900       .  S
Zn1065     O1076   1.965       .  S
Zn1066     O1588   1.909       .  S
Zn1066     O1071   1.958       .  S
Zn1066     O1074   2.004       .  S
Zn1066     O1077   1.902       .  S
Zn1067     O1068   1.975   1_545  S
Zn1067     O1075   2.056       .  S
Zn1067     O1078   2.080       .  S
Zn1067     O1079   2.014       .  S
O1068     Zn1584   1.983       .  S
O1068     Zn1586   1.909       .  S
O1069      C1081   1.278       .  A
O1070      C1082   1.268   1_545  A
O1071      C1083   1.266       .  A
O1072      C1601   1.262   1_545  A
O1073      C1083   1.281       .  A
O1074      C1602   1.268       .  A
O1075      C1084   1.279       .  A
O1076      C1085   1.266       .  A
O1077      C1604   1.263       .  A
O1078      C1085   1.280       .  A
O1079      C1086   1.273       .  A
O1080      C1606   1.271       .  A
C1081      O1592   1.262       .  A
C1081      C1506   1.464       .  S
C1082      O1594   1.268       .  A
C1082      C1436   1.470       .  S
C1083      C1450   1.486       .  S
C1084      O1597   1.263   1_545  A
C1084      C1520   1.466       .  S
C1085      C1467   1.477       .  S
C1086      O1600   1.271   1_545  A
C1086      C1425   1.473       .  S
Zn1087     O1091   1.949       .  S
Zn1087     O1092   2.083       .  S
Zn1087     O1096   2.028       .  S
Zn1087     O1103   2.064       .  S
Zn1088     O1091   1.908       .  S
Zn1088     O1093   1.959       .  S
Zn1088     O1095   1.981       .  S
Zn1088     O1099   2.003       .  S
Zn1089     O1091   1.948       .  S
Zn1089     O1094   2.025       .  S
Zn1089     O1097   2.063       .  S
Zn1089     O1100   2.088       .  S
Zn1090     O1091   1.908       .  S
Zn1090     O1098   1.977       .  S
Zn1090     O1101   2.001       .  S
Zn1090     O1102   1.957       .  S
O1092      C1104   1.285       .  A
O1093      C1105   1.265       .  A
O1094      C1106   1.273       .  A
O1095      C1104   1.271       .  A
O1096      C1106   1.273       .  A
O1097      C1105   1.278       .  A
O1098      C1107   1.270       .  A
O1099      C1108   1.270       .  A
O1100      C1107   1.286       .  A
O1101      C1108   1.270       .  A
O1102      C1109   1.265       .  A
O1103      C1109   1.279       .  A
C1104      C1548   1.483       .  S
C1105      C1408   1.491       .  S
C1106      C1366   1.475       .  S
C1107      C1453   1.484       .  S
C1108      C1380   1.473       .  S
C1109      C1394   1.486       .  S
Zn1110     O1114   1.904       .  S
Zn1110     O1115   1.996       .  S
Zn1110     O1119   1.974       .  S
Zn1110     O1126   1.959       .  S
Zn1111     O1114   1.909       .  S
Zn1111     O1116   1.965       .  S
Zn1111     O1118   2.009       .  S
Zn1111     O1122   1.974       .  S
Zn1112     O1114   1.944       .  S
Zn1112     O1117   2.091       .  S
Zn1112     O1120   2.058       .  S
Zn1112     O1123   2.021       .  S
Zn1113     O1114   1.952       .  S
Zn1113     O1121   2.025       .  S
Zn1113     O1124   2.093       .  S
Zn1113     O1125   2.065       .  S
O1115      C1127   1.269       .  A
O1116      C1128   1.267       .  A
O1117      C1129   1.285       .  A
O1118      C1127   1.271       .  A
O1119      C1129   1.270       .  A
O1120      C1128   1.279       .  A
O1121      C1130   1.274       .  A
O1122      C1131   1.269       .  A
O1123      C1130   1.274       .  A
O1124      C1131   1.285       .  A
O1125      C1132   1.279       .  A
O1126      C1132   1.265       .  A
C1127      C1338   1.484       .  S
C1128      C1397   1.490       .  S
C1129      C1537   1.488       .  S
C1130      C1352   1.480       .  S
C1131      C1464   1.481       .  S
C1132      C1411   1.492       .  S
Zn1133     O1657   1.974   1_554  S
Zn1133     O1138   2.014       .  S
Zn1133     O1142   2.084   1_655  S
Zn1133     O1149   2.066       .  S
Zn1134     O1139   2.085       .  S
Zn1134     O1141   2.025       .  S
Zn1134     O1145   2.091       .  S
Zn1135     O1140   1.973       .  S
Zn1135     O1143   1.954       .  S
Zn1135     O1146   2.011       .  S
Zn1136     O1137   1.935   1_545  S
Zn1136     O1144   2.017       .  S
Zn1136     O1147   1.989       .  S
Zn1136     O1148   1.959   1_545  S
O1137     Zn1653   1.974   1_556  S
O1138      C1670   1.273       .  A
O1139      C1151   1.281       .  A
O1140      C1152   1.268       .  A
O1143      C1671   1.266   1_556  A
O1144      C1153   1.272   1_545  A
O1147      C1154   1.269       .  A
O1148      C1675   1.267   1_556  A
O1149      C1155   1.278       .  A
C1150      O1658   1.273   1_545  A
C1150      C1495   1.473       .  S
C1151      O1663   1.266   1_554  A
C1151      C1296   1.477       .  S
C1152      C1324   1.490       .  S
C1153      C1481   1.475       .  S
C1154      C1310   1.488       .  S
C1155      O1668   1.267   1_554  A
C1155      C1285   1.471       .  S
Zn1156     O1160   1.949   1_544  S
Zn1156     O1161   2.013       .  S
Zn1156     O1165   2.078       .  S
Zn1156     O1172   2.076       .  S
Zn1157     O1680   1.947   1_554  S
Zn1157     O1162   2.096       .  S
Zn1157     O1164   2.018       .  S
Zn1157     O1168   2.092       .  S
Zn1158     O1160   1.902   1_545  S
Zn1158     O1163   1.963       .  S
Zn1158     O1166   1.957   1_545  S
Zn1158     O1169   1.987       .  S
Zn1159     O1680   1.910       .  S
Zn1159     O1167   2.017       .  S
Zn1159     O1170   1.971       .  S
Zn1159     O1171   1.963       .  S
O1160     Zn1677   1.947   1_556  S
O1160     Zn1679   1.910       .  S
O1161      C1173   1.271   1_545  A
O1162      C1174   1.279   1_554  A
O1163      C1175   1.269       .  A
O1164      C1693   1.272       .  A
O1165      C1175   1.286   1_554  A
O1166      C1694   1.262       .  A
O1167      C1696   1.271       .  A
O1168      C1177   1.288   1_554  A
O1169      C1176   1.267       .  A
O1170      C1177   1.271       .  A
O1171      C1698   1.266   1_556  A
O1172      C1178   1.277       .  A
C1173      O1684   1.272       .  A
C1173      C1439   1.467       .  S
C1174      O1686   1.262       .  A
C1174      C1299   1.500   1_556  S
C1175      C1254   1.480       .  S
C1176      O1687   1.271   1_545  A
C1176      C1422   1.484       .  S
C1177      C1271   1.481       .  S
C1178      O1691   1.266   1_554  A
C1178      C1282   1.494       .  S
Zn1179     O1183   1.914   1_554  S
Zn1179     O1184   2.012       .  S
Zn1179     O1188   1.930       .  S
Zn1179     O1195   1.948       .  S
Zn1180     O1183   1.919   1_554  S
Zn1180     O1185   1.987       .  S
Zn1180     O1187   1.991       .  S
Zn1180     O1191   1.953       .  S
Zn1181     O1183   1.960       .  S
Zn1181     O1186   2.065       .  S
Zn1181     O1189   2.084       .  S
Zn1181     O1192   2.030       .  S
Zn1182     O1183   1.965       .  S
Zn1182     O1190   2.024       .  S
Zn1182     O1193   2.041       .  S
Zn1182     O1194   2.081       .  S
O1184      C1196   1.270       .  A
O1185      C1197   1.271   1_554  A
O1186      C1198   1.279       .  A
O1187      C1196   1.268       .  A
O1188      C1198   1.264   1_554  A
O1189      C1197   1.284       .  A
O1190      C1199   1.273       .  A
O1191      C1200   1.263       .  A
O1192      C1199   1.274       .  A
O1193      C1200   1.274   1_556  A
O1194      C1201   1.282       .  A
O1195      C1201   1.266   1_554  A
C1196      C1383   1.479       .  S
C1197      C1327   1.493       .  S
C1198      C1226   1.461       .  S
C1199      C1369   1.478       .  S
C1200      C1243   1.464   1_554  S
C1201      C1257   1.477       .  S
Zn1202     O1206   1.908       .  S
Zn1202     O1207   2.017       .  S
Zn1202     O1211   1.968       .  S
Zn1202     O1218   2.000       .  S
Zn1203     O1206   1.910       .  S
Zn1203     O1208   1.974       .  S
Zn1203     O1210   2.008       .  S
Zn1203     O1214   1.955       .  S
Zn1204     O1206   1.972   1_556  S
Zn1204     O1209   2.043       .  S
Zn1204     O1212   2.071       .  S
Zn1204     O1215   2.013       .  S
Zn1205     O1206   1.945   1_556  S
Zn1205     O1213   2.009       .  S
Zn1205     O1216   2.072       .  S
Zn1205     O1217   2.102       .  S
O1207      C1219   1.271       .  A
O1208      C1220   1.268       .  A
O1209      C1221   1.274   1_556  A
O1210      C1219   1.271       .  A
O1211      C1221   1.266       .  A
O1212      C1220   1.281   1_556  A
O1213      C1222   1.272       .  A
O1214      C1223   1.266       .  A
O1215      C1222   1.273       .  A
O1216      C1223   1.282   1_556  A
O1217      C1224   1.288   1_556  A
O1218      C1224   1.273       .  A
C1219      C1355   1.488       .  S
C1220      C1268   1.477       .  S
C1221      C1240   1.482       .  S
C1222      C1341   1.478       .  S
C1223      C1229   1.493   1_554  S
C1224      C1313   1.494   1_554  S
C1225      C1226   1.390   1_554  A
C1225      C1230   1.401       .  A
C1225      H1232   1.084       .  S
C1226      C1227   1.415       .  A
C1227      C1228   1.402       .  A
C1227      N1234   1.433       .  S
C1228      C1229   1.404       .  A
C1228      H1233   1.084       .  S
C1229      C1230   1.429   1_556  A
C1230      N1231   1.439       .  S
N1231      H1235   1.046       .  S
N1231      H1236   1.042       .  S
N1234      H1237   1.045       .  S
N1234      H1238   1.045       .  S
C1239      C1240   1.410       .  A
C1239      H1246   1.084       .  S
C1240      C1241   1.416   1_554  A
C1241      N1248   1.432       .  S
C1242      C1243   1.406       .  A
C1242      H1247   1.084       .  S
C1243      C1244   1.407   1_556  A
C1244      N1245   1.434       .  S
N1245      H1250   1.046       .  S
N1248      H1251   1.046       .  S
C1253      C1254   1.413   1_554  A
C1253      C1258   1.404       .  A
C1253      H1260   1.084       .  S
C1254      C1255   1.412       .  A
C1255      C1256   1.399       .  A
C1255      N1262   1.438       .  S
C1256      C1257   1.409       .  A
C1256      H1261   1.085       .  S
C1257      C1258   1.410   1_556  A
C1258      N1259   1.438       .  S
N1259      H1263   1.046   1_554  S
N1259      H1264   1.043       .  S
N1262      H1265   1.041       .  S
N1262      H1266   1.045   1_556  S
C1267      C1268   1.408   1_556  A
C1267      C1272   1.406       .  A
C1267      H1274   1.083       .  S
C1268      C1269   1.404       .  A
C1269      C1270   1.409       .  A
C1269      N1276   1.437       .  S
C1270      C1271   1.412   1_554  A
C1270      H1275   1.084       .  S
C1271      C1272   1.405       .  A
C1272      N1273   1.437       .  S
N1273      H1277   1.046       .  S
N1273      H1278   1.046       .  S
N1276      H1279   1.046       .  S
N1276      H1280   1.046       .  S
C1281      C1802   1.411   1_556  A
C1281      C1286   1.401       .  A
C1281      H1288   1.083       .  S
C1282      C1801   1.411   1_544  A
C1282      C1283   1.416       .  A
C1283      C1284   1.408       .  A
C1283      N1290   1.432       .  S
C1284      C1805   1.407   1_545  A
C1284      H1289   1.084       .  S
C1285      C1804   1.407       .  A
C1285      C1286   1.403   1_554  A
C1286      N1287   1.438       .  S
N1287      H1291   1.046       .  S
N1287      H1292   1.045       .  S
N1290      H1293   1.045       .  S
N1290      H1294   1.045       .  S
C1295      C1296   1.396   1_556  A
C1295      C1300   1.404       .  A
C1295      H1302   1.084       .  S
C1296      C1817   1.421   1_545  A
C1297      C1816   1.421       .  A
C1297      C1298   1.410       .  A
C1297      N1304   1.438       .  S
C1298      C1299   1.405       .  A
C1298      H1303   1.084       .  S
C1299      C1820   1.426   1_554  A
C1300      C1819   1.426   1_546  A
C1300      N1301   1.439       .  S
N1301      H1305   1.046       .  S
N1301      H1306   1.046       .  S
N1304      H1307   1.043       .  S
N1304      H1308   1.046       .  S
C1309      C1310   1.399       .  A
C1309      C1314   1.405       .  A
C1309      H1316   1.084       .  S
C1310      C1311   1.422   1_556  A
C1311      C1312   1.405       .  A
C1311      N1318   1.434       .  S
C1312      C1313   1.401   1_554  A
C1312      H1317   1.084       .  S
C1313      C1314   1.424       .  A
C1314      N1315   1.431       .  S
N1315      H1319   1.046       .  S
N1315      H1320   1.039       .  S
N1318      H1321   1.046       .  S
N1318      H1322   1.045   1_554  S
C1323      C1324   1.411       .  A
C1323      C1328   1.401       .  A
C1323      H1330   1.084       .  S
C1324      C1325   1.410   1_556  A
C1325      C1326   1.406       .  A
C1325      N1332   1.432       .  S
C1326      C1327   1.414   1_554  A
C1326      H1331   1.084       .  S
C1327      C1328   1.413       .  A
C1328      N1329   1.433       .  S
N1329      H1333   1.045       .  S
N1329      H1334   1.046   1_556  S
C1337      C1338   1.405       .  A
C1337      C1342   1.404       .  A
C1337      H1344   1.083       .  S
C1338      C1339   1.416       .  A
C1339      C1340   1.404       .  A
C1339      N1346   1.439       .  S
C1340      C1341   1.402       .  A
C1340      H1345   1.084       .  S
C1341      C1342   1.412       .  A
C1342      N1343   1.438       .  S
N1343      H1347   1.046       .  S
N1343      H1348   1.046       .  S
N1346      H1349   1.046       .  S
N1346      H1350   1.046       .  S
C1351      C1352   1.403       .  A
C1351      C1356   1.408       .  A
C1351      H1358   1.084       .  S
C1352      C1353   1.410       .  A
C1353      C1354   1.405       .  A
C1353      N1360   1.438       .  S
C1354      C1355   1.407       .  A
C1354      H1359   1.083       .  S
C1355      C1356   1.416       .  A
C1356      N1357   1.438       .  S
N1357      H1361   1.046       .  S
N1357      H1362   1.046       .  S
N1360      H1363   1.046       .  S
N1360      H1364   1.046       .  S
C1365      C1366   1.403       .  A
C1365      C1370   1.408       .  A
C1365      H1372   1.084       .  S
C1366      C1367   1.418       .  A
C1367      C1368   1.404       .  A
C1367      N1374   1.439       .  S
C1368      C1369   1.403       .  A
C1368      H1373   1.084       .  S
C1369      C1370   1.410       .  A
C1370      N1371   1.437       .  S
N1371      H1375   1.046       .  S
N1371      H1376   1.046       .  S
N1374      H1377   1.043       .  S
N1374      H1378   1.046       .  S
C1379      C1380   1.404       .  A
C1379      C1384   1.405       .  A
C1379      H1386   1.084       .  S
C1380      C1381   1.410       .  A
C1381      C1382   1.402       .  A
C1381      N1388   1.439       .  S
C1382      C1383   1.405       .  A
C1382      H1387   1.084       .  S
C1383      C1384   1.412       .  A
C1384      N1385   1.438       .  S
N1385      H1389   1.046       .  S
N1385      H1390   1.046       .  S
N1388      H1391   1.045       .  S
N1388      H1392   1.046       .  S
C1393      C1394   1.413       .  A
C1393      C1398   1.399       .  A
C1393      H1400   1.084       .  S
C1394      C1395   1.403       .  A
C1395      C1396   1.402       .  A
C1395      N1402   1.432       .  S
C1396      C1397   1.414       .  A
C1396      H1401   1.083       .  S
C1397      C1398   1.413       .  A
C1398      N1399   1.433       .  S
N1399      H1403   1.044       .  S
N1399      H1404   1.046       .  S
N1402      H1405   1.046       .  S
N1402      H1406   1.046       .  S
C1407      C1408   1.414       .  A
C1407      H1414   1.084       .  S
C1408      C1409   1.412       .  A
C1409      N1416   1.432       .  S
C1410      C1411   1.414       .  A
C1410      H1415   1.083       .  S
C1411      C1412   1.412       .  A
C1412      N1413   1.432       .  S
N1413      H1418   1.046       .  S
N1416      H1419   1.046       .  S
C1421      C1422   1.406   1_565  A
C1421      C1426   1.405       .  A
C1421      H1428   1.083       .  S
C1422      C1943   1.418       .  A
C1423      C1942   1.418       .  A
C1423      C1424   1.403       .  A
C1423      N1430   1.439       .  S
C1424      C1945   1.400       .  A
C1424      H1429   1.084       .  S
C1425      C1944   1.400       .  A
C1425      C1426   1.410   1_545  A
C1426      N1427   1.438       .  S
N1427      H1431   1.046       .  S
N1427      H1432   1.046   1_565  S
N1430      H1433   1.046       .  S
N1430      H1434   1.046       .  S
C1435      C1436   1.403   1_545  A
C1435      C1440   1.404       .  A
C1435      H1442   1.084       .  S
C1436      C1957   1.417       .  A
C1437      C1956   1.417       .  A
C1437      C1438   1.401       .  A
C1437      N1444   1.439       .  S
C1438      C1959   1.401       .  A
C1438      H1443   1.084       .  S
C1439      C1958   1.401       .  A
C1439      C1440   1.407   1_565  A
C1440      N1441   1.438       .  S
N1441      H1445   1.046       .  S
N1441      H1446   1.046       .  S
N1444      H1447   1.043       .  S
N1444      H1448   1.046       .  S
C1449      C1450   1.399       .  A
C1449      C1454   1.411       .  A
C1449      H1456   1.084       .  S
C1450      C1451   1.422       .  A
C1451      C1452   1.406       .  A
C1451      N1458   1.440       .  S
C1452      C1453   1.397       .  A
C1452      H1457   1.084       .  S
C1453      C1454   1.420       .  A
C1454      N1455   1.438       .  S
N1455      H1459   1.046       .  S
N1455      H1460   1.045       .  S
N1458      H1461   1.046       .  S
N1458      H1462   1.046       .  S
C1463      C1464   1.398       .  A
C1463      C1468   1.408       .  A
C1463      H1470   1.084       .  S
C1464      C1465   1.419       .  A
C1465      C1466   1.410       .  A
C1465      N1472   1.438       .  S
C1466      C1467   1.398       .  A
C1466      H1471   1.084       .  S
C1467      C1468   1.417       .  A
C1468      N1469   1.439       .  S
N1469      H1473   1.046       .  S
N1469      H1474   1.045       .  S
N1472      H1475   1.043       .  S
N1472      H1476   1.046       .  S
C1477      C1998   1.401   1_655  A
C1477      C1482   1.402       .  A
C1477      H1484   1.084       .  S
C1478      C1997   1.401   1_455  A
C1479      C1480   1.401       .  A
C1479      N1486   1.439       .  S
C1480      H1485   1.084       .  S
C1481      C2002   1.418       .  A
C1482      C2001   1.418       .  A
C1482      N1483   1.438       .  S
N1483      H1487   1.045       .  S
N1483      H1488   1.042       .  S
N1486      H1489   1.043       .  S
N1486      H1490   1.046       .  S
C1491      C1492   1.402       .  A
C1491      C1496   1.406       .  A
C1491      H1498   1.084       .  S
C1492      C1583   1.469       .  S
C1493      C1494   1.401       .  A
C1493      N1500   1.439       .  S
C1494      H1499   1.084       .  S
C1495      C1496   1.410       .  A
C1496      N1497   1.438       .  S
N1497      H1501   1.046       .  S
N1497      H1502   1.046       .  S
N1500      H1503   1.043       .  S
N1500      H1504   1.046       .  S
C1505      C1506   1.404       .  A
C1505      C2030   1.406       .  A
C1505      H1512   1.084       .  S
C1506      C1507   1.413       .  A
C1507      C2028   1.389       .  A
C1507      N1514   1.441       .  S
C1508      C2027   1.389   1_545  A
C1508      C1509   1.404       .  A
C1508      H1513   1.086       .  S
C1509      C1510   1.421       .  A
C1510      C2025   1.406   1_545  A
C1510      N1511   1.438       .  S
N1511      H1515   1.046       .  S
N1511      H1516   1.040       .  S
N1514      H1517   1.045       .  S
N1514      H1518   1.046       .  S
C1519      C1520   1.404       .  A
C1519      C2044   1.406   1_545  A
C1519      H1526   1.084       .  S
C1520      C1521   1.414       .  A
C1521      C2042   1.389   1_545  A
C1521      N1528   1.441       .  S
C1522      C2041   1.389       .  A
C1522      C1523   1.403       .  A
C1522      H1527   1.086       .  S
C1523      C1524   1.421       .  A
C1524      C2039   1.406       .  A
C1524      N1525   1.438       .  S
N1525      H1529   1.046       .  S
N1525      H1530   1.041       .  S
N1528      H1531   1.044       .  S
N1528      H1532   1.046       .  S
C1533      C1534   1.398       .  A
C1533      C1538   1.409       .  A
C1533      H1540   1.084       .  S
C1534      C1535   1.420       .  A
C1535      C1536   1.408       .  A
C1535      N1542   1.439       .  S
C1536      C1537   1.399       .  A
C1536      H1541   1.084       .  S
C1537      C1538   1.421       .  A
C1538      N1539   1.438       .  S
N1539      H1543   1.046       .  S
N1539      H1544   1.046       .  S
N1542      H1545   1.046       .  S
N1542      H1546   1.046       .  S
C1547      C1548   1.397       .  A
C1547      C1552   1.400       .  A
C1547      H1554   1.084       .  S
C1548      C1549   1.419       .  A
C1549      C1550   1.410       .  A
C1549      N1556   1.438       .  S
C1550      C1551   1.400       .  A
C1550      H1555   1.084       .  S
C1551      C1552   1.425       .  A
C1552      N1553   1.434       .  S
N1553      H1557   1.044       .  S
N1553      H1558   1.046       .  S
N1556      H1559   1.046       .  S
N1556      H1560   1.046       .  S
Zn1561     O1565   1.909       .  S
Zn1561     O1566   1.897       .  S
Zn1561     O1570   1.967       .  S
Zn1561     O1577   2.007       .  S
Zn1562     O1567   2.024       .  S
Zn1562     O1569   2.060       .  S
Zn1562     O1573   2.083       .  S
Zn1563     O1568   2.075   1_655  S
Zn1563     O1571   2.014       .  S
Zn1563     O1574   2.058       .  S
Zn1564     O1572   1.895   1_565  S
Zn1564     O1575   1.965       .  S
Zn1564     O1576   2.012       .  S
O1569      C1578   1.278       .  A
O1570      C1580   1.266       .  A
O1574      C1581   1.278       .  A
O1575      C1582   1.266       .  A
O1576      C1583   1.269   1_565  A
C1578      C2043   1.468       .  S
C1580      C2071   1.486       .  S
C1581      C2029   1.470       .  S
C1582      C2054   1.485       .  S
Zn1584     O1589   2.051       .  S
Zn1584     O1593   2.085       .  S
Zn1584     O1600   2.007       .  S
Zn1585     O1588   1.914       .  S
Zn1585     O1590   2.005       .  S
Zn1585     O1592   1.900       .  S
Zn1585     O1596   1.965       .  S
Zn1586     O1591   1.958       .  S
Zn1586     O1594   2.004       .  S
Zn1586     O1597   1.902       .  S
Zn1587     O1588   1.975       .  S
Zn1587     O1595   2.056       .  S
Zn1587     O1598   2.080       .  S
Zn1587     O1599   2.014       .  S
O1589      C1601   1.278       .  A
O1590      C1602   1.268       .  A
O1591      C1603   1.266       .  A
O1593      C1603   1.281       .  A
O1595      C1604   1.279       .  A
O1596      C1605   1.266       .  A
O1598      C1605   1.280       .  A
O1599      C1606   1.273       .  A
C1601      C2026   1.464       .  S
C1602      C1956   1.470       .  S
C1603      C1970   1.486       .  S
C1604      C2040   1.466       .  S
C1605      C1987   1.477       .  S
C1606      C1945   1.473       .  S
Zn1607     O1611   1.949       .  S
Zn1607     O1612   2.083       .  S
Zn1607     O1616   2.028       .  S
Zn1607     O1623   2.064       .  S
Zn1608     O1611   1.908       .  S
Zn1608     O1613   1.959       .  S
Zn1608     O1615   1.981       .  S
Zn1608     O1619   2.003       .  S
Zn1609     O1611   1.948       .  S
Zn1609     O1614   2.025       .  S
Zn1609     O1617   2.063       .  S
Zn1609     O1620   2.088       .  S
Zn1610     O1611   1.908       .  S
Zn1610     O1618   1.977       .  S
Zn1610     O1621   2.001       .  S
Zn1610     O1622   1.957       .  S
O1612      C1624   1.285       .  A
O1613      C1625   1.265       .  A
O1614      C1626   1.273       .  A
O1615      C1624   1.271       .  A
O1616      C1626   1.273       .  A
O1617      C1625   1.278       .  A
O1618      C1627   1.270       .  A
O1619      C1628   1.270       .  A
O1620      C1627   1.286       .  A
O1621      C1628   1.270       .  A
O1622      C1629   1.265       .  A
O1623      C1629   1.279       .  A
C1624      C2068   1.483       .  S
C1625      C1928   1.491       .  S
C1626      C1886   1.475       .  S
C1627      C1973   1.484       .  S
C1628      C1900   1.473       .  S
C1629      C1914   1.486       .  S
Zn1630     O1634   1.904       .  S
Zn1630     O1635   1.996       .  S
Zn1630     O1639   1.974       .  S
Zn1630     O1646   1.959       .  S
Zn1631     O1634   1.909       .  S
Zn1631     O1636   1.965       .  S
Zn1631     O1638   2.009       .  S
Zn1631     O1642   1.974       .  S
Zn1632     O1634   1.944       .  S
Zn1632     O1637   2.091       .  S
Zn1632     O1640   2.058       .  S
Zn1632     O1643   2.021       .  S
Zn1633     O1634   1.952       .  S
Zn1633     O1641   2.025       .  S
Zn1633     O1644   2.093       .  S
Zn1633     O1645   2.065       .  S
O1635      C1647   1.269       .  A
O1636      C1648   1.267       .  A
O1637      C1649   1.285       .  A
O1638      C1647   1.271       .  A
O1639      C1649   1.270       .  A
O1640      C1648   1.279       .  A
O1641      C1650   1.274       .  A
O1642      C1651   1.269       .  A
O1643      C1650   1.274       .  A
O1644      C1651   1.285       .  A
O1645      C1652   1.279       .  A
O1646      C1652   1.265       .  A
C1647      C1858   1.484       .  S
C1648      C1917   1.490       .  S
C1649      C2057   1.488       .  S
C1650      C1872   1.480       .  S
C1651      C1984   1.481       .  S
C1652      C1931   1.492       .  S
Zn1653     O1658   2.014       .  S
Zn1653     O1662   2.084   1_655  S
Zn1653     O1669   2.066       .  S
Zn1654     O1659   2.085       .  S
Zn1654     O1661   2.025       .  S
Zn1654     O1665   2.091       .  S
Zn1655     O1660   1.973       .  S
Zn1655     O1663   1.954   1_565  S
Zn1655     O1666   2.011       .  S
Zn1656     O1657   1.935       .  S
Zn1656     O1664   2.017       .  S
Zn1656     O1667   1.989       .  S
Zn1656     O1668   1.959       .  S
O1659      C1671   1.281       .  A
O1660      C1672   1.268       .  A
O1664      C1673   1.272       .  A
O1667      C1674   1.269       .  A
O1669      C1675   1.278       .  A
C1670      C2015   1.473       .  S
C1671      C1816   1.477       .  S
C1672      C1844   1.490       .  S
C1673      C2001   1.475       .  S
C1674      C1830   1.488       .  S
C1675      C1805   1.471       .  S
Zn1676     O1680   1.949   1_554  S
Zn1676     O1681   2.013       .  S
Zn1676     O1685   2.078       .  S
Zn1676     O1692   2.076       .  S
Zn1677     O1682   2.096       .  S
Zn1677     O1684   2.018       .  S
Zn1677     O1688   2.092       .  S
Zn1678     O1680   1.902       .  S
Zn1678     O1683   1.963       .  S
Zn1678     O1686   1.957       .  S
Zn1678     O1689   1.987       .  S
Zn1679     O1687   2.017       .  S
Zn1679     O1690   1.971       .  S
Zn1679     O1691   1.963   1_565  S
O1681      C1693   1.271       .  A
O1682      C1694   1.279   1_554  A
O1683      C1695   1.269       .  A
O1685      C1695   1.286   1_554  A
O1688      C1697   1.288   1_554  A
O1689      C1696   1.267       .  A
O1690      C1697   1.271       .  A
O1692      C1698   1.277       .  A
C1693      C1959   1.467       .  S
C1694      C1819   1.500   1_556  S
C1695      C1774   1.480       .  S
C1696      C1942   1.484       .  S
C1697      C1791   1.481       .  S
C1698      C1802   1.494       .  S
Zn1699     O1703   1.914   1_554  S
Zn1699     O1704   2.012       .  S
Zn1699     O1708   1.930       .  S
Zn1699     O1715   1.948       .  S
Zn1700     O1703   1.919   1_554  S
Zn1700     O1705   1.987       .  S
Zn1700     O1707   1.991       .  S
Zn1700     O1711   1.953       .  S
Zn1701     O1703   1.960       .  S
Zn1701     O1706   2.065       .  S
Zn1701     O1709   2.084       .  S
Zn1701     O1712   2.030       .  S
Zn1702     O1703   1.965       .  S
Zn1702     O1710   2.024       .  S
Zn1702     O1713   2.041       .  S
Zn1702     O1714   2.081       .  S
O1704      C1716   1.270       .  A
O1705      C1717   1.271   1_554  A
O1706      C1718   1.279       .  A
O1707      C1716   1.268       .  A
O1708      C1718   1.264   1_554  A
O1709      C1717   1.284       .  A
O1710      C1719   1.273       .  A
O1711      C1720   1.263       .  A
O1712      C1719   1.274       .  A
O1713      C1720   1.274   1_556  A
O1714      C1721   1.282       .  A
O1715      C1721   1.266   1_554  A
C1716      C1903   1.479       .  S
C1717      C1847   1.493       .  S
C1718      C1746   1.461       .  S
C1719      C1889   1.478       .  S
C1720      C1763   1.464   1_554  S
C1721      C1777   1.477       .  S
Zn1722     O1726   1.908       .  S
Zn1722     O1727   2.017       .  S
Zn1722     O1731   1.968       .  S
Zn1722     O1738   2.000       .  S
Zn1723     O1726   1.910       .  S
Zn1723     O1728   1.974       .  S
Zn1723     O1730   2.008       .  S
Zn1723     O1734   1.955       .  S
Zn1724     O1726   1.972   1_556  S
Zn1724     O1729   2.043       .  S
Zn1724     O1732   2.071       .  S
Zn1724     O1735   2.013       .  S
Zn1725     O1726   1.945   1_556  S
Zn1725     O1733   2.009       .  S
Zn1725     O1736   2.072       .  S
Zn1725     O1737   2.102       .  S
O1727      C1739   1.271       .  A
O1728      C1740   1.268       .  A
O1729      C1741   1.274   1_556  A
O1730      C1739   1.271       .  A
O1731      C1741   1.266       .  A
O1732      C1740   1.281   1_556  A
O1733      C1742   1.272       .  A
O1734      C1743   1.266       .  A
O1735      C1742   1.273       .  A
O1736      C1743   1.282   1_556  A
O1737      C1744   1.288   1_556  A
O1738      C1744   1.273       .  A
C1739      C1875   1.488       .  S
C1740      C1788   1.477       .  S
C1741      C1760   1.482       .  S
C1742      C1861   1.478       .  S
C1743      C1749   1.493   1_554  S
C1744      C1833   1.494   1_554  S
C1745      C1746   1.390   1_554  A
C1745      C1750   1.401       .  A
C1745      H1752   1.084       .  S
C1746      C1747   1.415       .  A
C1747      C1748   1.402       .  A
C1747      N1754   1.433       .  S
C1748      C1749   1.404       .  A
C1748      H1753   1.084       .  S
C1749      C1750   1.429   1_556  A
C1750      N1751   1.439       .  S
N1751      H1755   1.046       .  S
N1751      H1756   1.042       .  S
N1754      H1757   1.045       .  S
N1754      H1758   1.045       .  S
C1759      C1760   1.410       .  A
C1759      H1766   1.084       .  S
C1760      C1761   1.416   1_554  A
C1761      N1768   1.432       .  S
C1762      C1763   1.406       .  A
C1762      H1767   1.084       .  S
C1763      C1764   1.407   1_556  A
C1764      N1765   1.434       .  S
N1765      H1770   1.046       .  S
N1768      H1771   1.046       .  S
C1773      C1774   1.413   1_554  A
C1773      C1778   1.404       .  A
C1773      H1780   1.084       .  S
C1774      C1775   1.412       .  A
C1775      C1776   1.399       .  A
C1775      N1782   1.438       .  S
C1776      C1777   1.409       .  A
C1776      H1781   1.085       .  S
C1777      C1778   1.410   1_556  A
C1778      N1779   1.438       .  S
N1779      H1783   1.046   1_554  S
N1779      H1784   1.043       .  S
N1782      H1785   1.041       .  S
N1782      H1786   1.045   1_556  S
C1787      C1788   1.408   1_556  A
C1787      C1792   1.406       .  A
C1787      H1794   1.083       .  S
C1788      C1789   1.404       .  A
C1789      C1790   1.409       .  A
C1789      N1796   1.437       .  S
C1790      C1791   1.412   1_554  A
C1790      H1795   1.084       .  S
C1791      C1792   1.405       .  A
C1792      N1793   1.437       .  S
N1793      H1797   1.046       .  S
N1793      H1798   1.046       .  S
N1796      H1799   1.046       .  S
N1796      H1800   1.046       .  S
C1801      C1806   1.401       .  A
C1801      H1808   1.083       .  S
C1802      C1803   1.416       .  A
C1803      C1804   1.408       .  A
C1803      N1810   1.432       .  S
C1804      H1809   1.084       .  S
C1805      C1806   1.403   1_554  A
C1806      N1807   1.438       .  S
N1807      H1811   1.046       .  S
N1807      H1812   1.045       .  S
N1810      H1813   1.045       .  S
N1810      H1814   1.045       .  S
C1815      C1816   1.396   1_556  A
C1815      C1820   1.404       .  A
C1815      H1822   1.084       .  S
C1817      C1818   1.410       .  A
C1817      N1824   1.438       .  S
C1818      C1819   1.405       .  A
C1818      H1823   1.084       .  S
C1820      N1821   1.439       .  S
N1821      H1825   1.046       .  S
N1821      H1826   1.046       .  S
N1824      H1827   1.043       .  S
N1824      H1828   1.046       .  S
C1829      C1830   1.399       .  A
C1829      C1834   1.405       .  A
C1829      H1836   1.084       .  S
C1830      C1831   1.422   1_556  A
C1831      C1832   1.405       .  A
C1831      N1838   1.434       .  S
C1832      C1833   1.401   1_554  A
C1832      H1837   1.084       .  S
C1833      C1834   1.424       .  A
C1834      N1835   1.431       .  S
N1835      H1839   1.046       .  S
N1835      H1840   1.039       .  S
N1838      H1841   1.046       .  S
N1838      H1842   1.045   1_554  S
C1843      C1844   1.411       .  A
C1843      C1848   1.401       .  A
C1843      H1850   1.084       .  S
C1844      C1845   1.410   1_556  A
C1845      C1846   1.406       .  A
C1845      N1852   1.432       .  S
C1846      C1847   1.414   1_554  A
C1846      H1851   1.084       .  S
C1847      C1848   1.413       .  A
C1848      N1849   1.433       .  S
N1849      H1853   1.045       .  S
N1849      H1854   1.046   1_556  S
C1857      C1858   1.405       .  A
C1857      C1862   1.404       .  A
C1857      H1864   1.083       .  S
C1858      C1859   1.416       .  A
C1859      C1860   1.404       .  A
C1859      N1866   1.439       .  S
C1860      C1861   1.402       .  A
C1860      H1865   1.084       .  S
C1861      C1862   1.412       .  A
C1862      N1863   1.438       .  S
N1863      H1867   1.046       .  S
N1863      H1868   1.046       .  S
N1866      H1869   1.046       .  S
N1866      H1870   1.046       .  S
C1871      C1872   1.403       .  A
C1871      C1876   1.408       .  A
C1871      H1878   1.084       .  S
C1872      C1873   1.410       .  A
C1873      C1874   1.405       .  A
C1873      N1880   1.438       .  S
C1874      C1875   1.407       .  A
C1874      H1879   1.083       .  S
C1875      C1876   1.416       .  A
C1876      N1877   1.438       .  S
N1877      H1881   1.046       .  S
N1877      H1882   1.046       .  S
N1880      H1883   1.046       .  S
N1880      H1884   1.046       .  S
C1885      C1886   1.403       .  A
C1885      C1890   1.408       .  A
C1885      H1892   1.084       .  S
C1886      C1887   1.418       .  A
C1887      C1888   1.404       .  A
C1887      N1894   1.439       .  S
C1888      C1889   1.403       .  A
C1888      H1893   1.084       .  S
C1889      C1890   1.410       .  A
C1890      N1891   1.437       .  S
N1891      H1895   1.046       .  S
N1891      H1896   1.046       .  S
N1894      H1897   1.043       .  S
N1894      H1898   1.046       .  S
C1899      C1900   1.404       .  A
C1899      C1904   1.405       .  A
C1899      H1906   1.084       .  S
C1900      C1901   1.410       .  A
C1901      C1902   1.402       .  A
C1901      N1908   1.439       .  S
C1902      C1903   1.405       .  A
C1902      H1907   1.084       .  S
C1903      C1904   1.412       .  A
C1904      N1905   1.438       .  S
N1905      H1909   1.046       .  S
N1905      H1910   1.046       .  S
N1908      H1911   1.045       .  S
N1908      H1912   1.046       .  S
C1913      C1914   1.413       .  A
C1913      C1918   1.399       .  A
C1913      H1920   1.084       .  S
C1914      C1915   1.403       .  A
C1915      C1916   1.402       .  A
C1915      N1922   1.432       .  S
C1916      C1917   1.414       .  A
C1916      H1921   1.083       .  S
C1917      C1918   1.413       .  A
C1918      N1919   1.433       .  S
N1919      H1923   1.044       .  S
N1919      H1924   1.046       .  S
N1922      H1925   1.046       .  S
N1922      H1926   1.046       .  S
C1927      C1928   1.414       .  A
C1927      H1934   1.084       .  S
C1928      C1929   1.412       .  A
C1929      N1936   1.432       .  S
C1930      C1931   1.414       .  A
C1930      H1935   1.083       .  S
C1931      C1932   1.412       .  A
C1932      N1933   1.432       .  S
N1933      H1938   1.046       .  S
N1936      H1939   1.046       .  S
C1941      C1942   1.406       .  A
C1941      C1946   1.405       .  A
C1941      H1948   1.083       .  S
C1943      C1944   1.403       .  A
C1943      N1950   1.439       .  S
C1944      H1949   1.084       .  S
C1945      C1946   1.410       .  A
C1946      N1947   1.438       .  S
N1947      H1951   1.046       .  S
N1947      H1952   1.046       .  S
N1950      H1953   1.046   1_545  S
N1950      H1954   1.046       .  S
C1955      C1956   1.403       .  A
C1955      C1960   1.404       .  A
C1955      H1962   1.084       .  S
C1957      C1958   1.401       .  A
C1957      N1964   1.439       .  S
C1958      H1963   1.084       .  S
C1959      C1960   1.407       .  A
C1960      N1961   1.438       .  S
N1961      H1965   1.046       .  S
N1961      H1966   1.046       .  S
N1964      H1967   1.043       .  S
N1964      H1968   1.046       .  S
C1969      C1970   1.399       .  A
C1969      C1974   1.411       .  A
C1969      H1976   1.084       .  S
C1970      C1971   1.422       .  A
C1971      C1972   1.406       .  A
C1971      N1978   1.440       .  S
C1972      C1973   1.397       .  A
C1972      H1977   1.084       .  S
C1973      C1974   1.420       .  A
C1974      N1975   1.438       .  S
N1975      H1979   1.046       .  S
N1975      H1980   1.045       .  S
N1978      H1981   1.046       .  S
N1978      H1982   1.046       .  S
C1983      C1984   1.398       .  A
C1983      C1988   1.408       .  A
C1983      H1990   1.084       .  S
C1984      C1985   1.419       .  A
C1985      C1986   1.410       .  A
C1985      N1992   1.438       .  S
C1986      C1987   1.398       .  A
C1986      H1991   1.084       .  S
C1987      C1988   1.417       .  A
C1988      N1989   1.439       .  S
N1989      H1993   1.046       .  S
N1989      H1994   1.045       .  S
N1992      H1995   1.043       .  S
N1992      H1996   1.046       .  S
C1997      C2002   1.402       .  A
C1997      H2004   1.084       .  S
C1999      C2000   1.401       .  A
C1999      N2006   1.439       .  S
C2000      H2005   1.084       .  S
C2002      N2003   1.438       .  S
N2003      H2007   1.045       .  S
N2003      H2008   1.042       .  S
N2006      H2009   1.043       .  S
N2006      H2010   1.046       .  S
C2011      C2012   1.402       .  A
C2011      C2016   1.406       .  A
C2011      H2018   1.084       .  S
C2013      C2014   1.401       .  A
C2013      N2020   1.439       .  S
C2014      H2019   1.084       .  S
C2015      C2016   1.410       .  A
C2016      N2017   1.438       .  S
N2017      H2021   1.046       .  S
N2017      H2022   1.046       .  S
N2020      H2023   1.043       .  S
N2020      H2024   1.046       .  S
C2025      C2026   1.404       .  A
C2025      H2032   1.084       .  S
C2026      C2027   1.413       .  A
C2027      N2034   1.441       .  S
C2028      C2029   1.404       .  A
C2028      H2033   1.086       .  S
C2029      C2030   1.421       .  A
C2030      N2031   1.438       .  S
N2031      H2035   1.046       .  S
N2031      H2036   1.040       .  S
N2034      H2037   1.045       .  S
N2034      H2038   1.046       .  S
C2039      C2040   1.404       .  A
C2039      H2046   1.084       .  S
C2040      C2041   1.414       .  A
C2041      N2048   1.441       .  S
C2042      C2043   1.403       .  A
C2042      H2047   1.086       .  S
C2043      C2044   1.421       .  A
C2044      N2045   1.438       .  S
N2045      H2049   1.046       .  S
N2045      H2050   1.041       .  S
N2048      H2051   1.044       .  S
N2048      H2052   1.046       .  S
C2053      C2054   1.398       .  A
C2053      C2058   1.409       .  A
C2053      H2060   1.084       .  S
C2054      C2055   1.420       .  A
C2055      C2056   1.408       .  A
C2055      N2062   1.439       .  S
C2056      C2057   1.399       .  A
C2056      H2061   1.084       .  S
C2057      C2058   1.421       .  A
C2058      N2059   1.438       .  S
N2059      H2063   1.046       .  S
N2059      H2064   1.046       .  S
N2062      H2065   1.046       .  S
N2062      H2066   1.046       .  S
C2067      C2068   1.397       .  A
C2067      C2072   1.400       .  A
C2067      H2074   1.084       .  S
C2068      C2069   1.419       .  A
C2069      C2070   1.410       .  A
C2069      N2076   1.438       .  S
C2070      C2071   1.400       .  A
C2070      H2075   1.084       .  S
C2071      C2072   1.425       .  A
C2072      N2073   1.434       .  S
N2073      H2077   1.044       .  S
N2073      H2078   1.046       .  S
N2076      H2079   1.046       .  S
N2076      H2080   1.046       .  S
