geometry optimzed in LAMMPS
_audit_creation_date              2020-11-30 
_audit_creation_method            'lammps2cif' 
_symmetry_space_group_name_H-M    'P1' 
_symmetry_Int_Tables_number       1 
_symmetry_cell_setting            triclinic 
loop_ 
_symmetry_equiv_pos_as_xyz 
  x,y,z 
_cell_length_a                    42.85338789 
_cell_length_b                    42.861713055240585 
_cell_length_c                    40.01741573476638 
_cell_angle_alpha                 90.05943581017476 
_cell_angle_beta                  89.92659128569088 
_cell_angle_gamma                 120.05975596504732 
loop_ 
_atom_site_label 
_atom_site_type_symbol 
_atom_site_fract_x 
_atom_site_fract_y 
_atom_site_fract_z 
_atom_site_charge 
O1          O  0.16747557  0.45733838  0.49071095    -0.84000
C2          C  0.15205988  0.50227113  0.10688325     0.95400
O3          O  0.18020405  0.00902272  0.09002525    -0.73100
O4          O  0.21253054  0.49564167  0.03730592    -0.76700
Al5        Al  0.18022874  0.51310442  0.04174214     1.49000
C6          C  0.20962501  0.47210218  0.05719359     0.90700
O7          O  0.11039499  0.40224824  0.06390668    -0.82900
O8          O  0.06935624  0.44332188  0.01958102    -0.76400
Al9        Al  0.13903084  0.43246586  0.02878868     1.90100
O10         O  0.08402802  0.43103023  0.08391082    -0.75500
O11         O  0.11002046  0.51275546  0.02536267    -0.75400
O12         O  0.12444183  0.50034748  0.09278673    -0.81000
O13         O  0.16277086  0.04541850  0.04617555    -0.79200
O14         O  0.13857468  0.47146598  0.04174817    -1.15400
O15         O  0.17615215  0.51310259  0.49345938    -0.74600
C16         C  0.16937532  0.48494206  0.47661173     0.96200
C17         C  0.09013580  0.40493933  0.08494332     0.92600
Al18       Al  0.09957256  0.47193209  0.05470840     1.55600
O19         O  0.17984003  0.44288892  0.05814652    -0.79200
C20         C  0.13922147  0.04252865  0.02630986     0.96700
C21         C  0.07205019  0.42306823  0.49854439     0.91600
O22         O  0.09813757  0.41694985  0.99958320    -0.84500
O23         O  0.16671564  0.45691087  0.42612027    -0.84000
C24         C  0.18212544  0.01717789  0.30995751     0.95400
O25         O  0.15398374  0.99576308  0.32684113    -0.73100
O26         O  0.12164879  0.45011330  0.37958677    -0.76700
Al27       Al  0.15402745  0.99990514  0.37512263     1.49000
C28         C  0.12446576  0.42943472  0.35965162     0.90700
O29         O  0.22364642  0.45871298  0.35283927    -0.82900
O30         O  0.26482584  0.04101184  0.39733767    -0.76400
Al31       Al  0.19508238  0.46037837  0.38799936     1.90100
O32         O  0.25020658  0.01394757  0.33299611    -0.75500
O33         O  0.22427493  0.06982757  0.39149799    -0.75400
O34         O  0.20986219  0.04282295  0.32404084    -0.81000
O35         O  0.17154257  0.04967891  0.37064991    -0.79200
O36         O  0.19562805  0.99988344  0.37508357    -1.15400
O37         O  0.15816687  0.50406520  0.42340837    -0.74600
C38         C  0.16488857  0.48267384  0.44023707     0.96200
C39         C  0.24401570  0.48170359  0.33188720     0.92600
Al40       Al  0.23467571  0.03935966  0.36216712     1.55600
O41         O  0.15420831  0.42996228  0.35865579    -0.79200
C42         C  0.19508236  0.07038811  0.39052370     0.96700
C43         C  0.26211611  0.01801964  0.41829141     0.91600
O44         O  0.23602500  0.48576734  0.41717810    -0.84500
O45         O  0.00001945  0.12368093  0.09272579    -0.84000
C46         C  0.01546785  0.18386371  0.47653844     0.95400
O47         O  0.98732016  0.16245820  0.49341797    -0.73100
O48         O  0.45497334  0.11685149  0.04618392    -0.76700
Al49       Al  0.98735234  0.16663112  0.04169871     1.49000
C50         C  0.45780567  0.09615949  0.02627743     0.90700
O51         O  0.05697039  0.12543040  0.01949752    -0.82900
O52         O  0.09816670  0.20774930  0.06393475    -0.76400
Al53       Al  0.02840369  0.12712883  0.05463491     1.90100
O54         O  0.08351498  0.18062772  0.99958921    -0.75500
O55         O  0.05759466  0.23655808  0.05807063    -0.75400
O56         O  0.04319099  0.20952547  0.49062202    -0.81000
O57         O  0.00487079  0.21640659  0.03720071    -0.79200
O58         O  0.02895584  0.16661102  0.04168474    -1.15400
O59         O  0.49147019  0.17083237  0.08998204    -0.74600
C60         C  0.49819556  0.14945185  0.10682560     0.96200
C61         C  0.07730786  0.14838348  0.49850727     0.92600
Al62       Al  0.06800348  0.20607550  0.02875334     1.55600
O63         O  0.98755041  0.09669477  0.02529749    -0.79200
C64         C  0.02839679  0.23711188  0.05708940     0.96700
C65         C  0.09544045  0.18477840  0.08492353     0.91600
O66         O  0.06933260  0.15254358  0.08382227    -0.84500
O67         O  0.23704126  0.17947748  0.44192201    -0.84000
C68         C  0.09656977  0.13854321  0.47386425     0.95400
O69         O  0.11727349  0.16204771  0.45395409    -0.73100
O70         O  0.16291645  0.17546578  0.00669637    -0.76700
Al71       Al  0.16705858  0.17956346  0.45840754     1.49000
C72         C  0.18433560  0.16878532  0.02353409     0.90700
O73         O  0.18127247  0.09762656  0.00044124    -0.82900
O74         O  0.15300995  0.08337452  0.41637988    -0.76400
Al75       Al  0.20662832  0.13858247  0.47126393     1.90100
O76         O  0.12598000  0.06885449  0.48074701    -0.75500
O77         O  0.12411785  0.12368772  0.40736496    -0.75400
O78         O  0.09713336  0.10935813  0.47487523    -0.81000
O79         O  0.17117773  0.17956760  0.41012624    -0.79200
O80         O  0.16709981  0.13799103  0.45839429    -1.15400
O81         O  0.21684257  0.21199152  0.46284416    -0.74600
C82         C  0.23756934  0.20921265  0.44293579     0.96200
C83         C  0.14901411  0.07156369  0.00164360     0.92600
Al84       Al  0.12760429  0.09893366  0.44553854     1.55600
O85         O  0.21007571  0.16690300  0.00941281    -0.79200
C86         C  0.14975367  0.15142679  0.39325977     0.96700
C87         C  0.18528110  0.08965442  0.41518316     0.91600
O88         O  0.20830450  0.11007557  0.43607354    -0.84500
O89         O  0.45776321  0.16704554  0.25940012    -0.84000
C90         C  0.50269166  0.15173033  0.14319788     0.95400
O91         O  0.00945167  0.17988133  0.16005225    -0.73100
O92         O  0.49603887  0.21212439  0.21280490    -0.76700
Al93       Al  0.51354524  0.17986819  0.20833720     1.49000
C94         C  0.47248545  0.20920734  0.19293098     0.90700
O95         O  0.40266523  0.10998805  0.18622389    -0.82900
O96         O  0.44380024  0.06897597  0.23049241    -0.76400
Al97       Al  0.43289065  0.13861371  0.22133391     1.90100
O98         O  0.43148850  0.08368643  0.16616712    -0.75500
O99         O  0.51324844  0.10969409  0.22469413    -0.75400
O100        O  0.50082527  0.12413729  0.15728773    -0.81000
O101        O  0.04589991  0.16246704  0.20387586    -0.79200
O102        O  0.47191330  0.13820115  0.20834504    -1.15400
O103        O  0.51355977  0.17577683  0.25661905    -0.74600
C104        C  0.48539152  0.16897879  0.27348296     0.96200
C105        C  0.40537535  0.08976952  0.16515960     0.92600
Al106      Al  0.47240727  0.09923076  0.19536231     1.55600
O107        O  0.44327898  0.17941768  0.19198607    -0.79200
C108        C  0.04302276  0.13892335  0.22374463     0.96700
C109        C  0.42355157  0.07164890  0.25155820     0.91600
O110        O  0.41741342  0.09772084  0.25053852    -0.84500
O111        O  0.22412144  0.15392204  0.14149291    -0.84000
C112        C  0.12449572  0.19458926  0.10958732     0.95400
O113        O  0.12160278  0.17105079  0.12947269    -0.73100
O114        O  0.15395754  0.15766091  0.07678551    -0.76700
Al115      Al  0.15392875  0.15360106  0.12507345     1.49000
C116        C  0.18211545  0.16440801  0.05992828     0.90700
O117        O  0.25014652  0.23566699  0.08294926    -0.82900
O118        O  0.23599557  0.24975745  0.16723481    -0.76400
Al119      Al  0.23458279  0.19475894  0.11214445     1.90100
O120        O  0.22372186  0.26442169  0.10288343    -0.75500
O121        O  0.16665873  0.20937861  0.17610270    -0.75400
O122        O  0.15428510  0.22380065  0.10863295    -0.81000
O123        O  0.15799212  0.15361946  0.17336260    -0.79200
O124        O  0.19557267  0.19523175  0.12507308    -1.15400
O125        O  0.17136163  0.12126928  0.12066673    -0.74600
C126        C  0.19490710  0.12414188  0.14053063     0.96200
C127        C  0.24398991  0.26172388  0.08186480     0.92600
Al128      Al  0.19510193  0.23423266  0.13801229     1.55600
O129        O  0.20974944  0.16636813  0.07403100    -0.79200
C130        C  0.16476567  0.18178040  0.19020904     0.96700
C131        C  0.26204867  0.24358627  0.16832748     0.91600
O132        O  0.26475207  0.22333259  0.14730129    -0.84500
O133        O  0.04323796  0.20948379  0.42603872    -0.84000
C134        C  0.48313620  0.16451334  0.30985997     0.95400
O135        O  0.50453719  0.15780536  0.32669173    -0.73100
O136        O  0.05012594  0.17120731  0.37945669    -0.76700
Al137      Al  0.50034244  0.15366730  0.37497605     1.49000
C138        C  0.07082987  0.19474461  0.35956903     0.90700
O139        O  0.04142710  0.26444477  0.35275116    -0.82900
O140        O  0.45909387  0.22321488  0.39726111    -0.76400
Al141      Al  0.03977025  0.23429598  0.38791816     1.90100
O142        O  0.48619982  0.23562946  0.33290827    -0.75500
O143        O  0.43036916  0.15379097  0.39142932    -0.75400
O144        O  0.45736462  0.16634006  0.32397505    -0.81000
O145        O  0.45055829  0.12126500  0.37050522    -0.79200
O146        O  0.50030091  0.19524955  0.37500347    -1.15400
O147        O  0.99617186  0.15361727  0.42325926    -0.74600
C148        C  0.01757735  0.18176052  0.44013118     0.96200
C149        C  0.01844507  0.26172787  0.33178709     0.92600
Al150      Al  0.46079687  0.19467945  0.36209156     1.55600
O151        O  0.07026009  0.22392592  0.35858556    -0.79200
C152        C  0.42985563  0.12406045  0.39043351     0.96700
C153        C  0.48207515  0.24356715  0.41822025     0.91600
O154        O  0.01432614  0.24978694  0.41709343    -0.84500
O155        O  0.12402242  0.99969350  0.15736173    -0.84000
C156        C  0.18420986  0.01509529  0.27354500     0.95400
O157        O  0.16279219  0.98695917  0.25667162    -0.73100
O158        O  0.11720812  0.45462693  0.20390924    -0.76700
Al159      Al  0.16696789  0.98699766  0.20838930     1.49000
C160        C  0.09650612  0.45743162  0.22382973     0.90700
O161        O  0.12575521  0.05657749  0.23063820    -0.82900
O162        O  0.20809901  0.09777063  0.18611293    -0.76400
Al163      Al  0.12745140  0.02803593  0.19547919     1.90100
O164        O  0.18099422  0.08316205  0.25045603    -0.75500
O165        O  0.23691022  0.05721352  0.19199240    -0.75400
O166        O  0.20986551  0.04282505  0.25945163    -0.81000
O167        O  0.21674674  0.00450101  0.21288283    -0.79200
O168        O  0.16694747  0.02859057  0.20840023    -1.15400
O169        O  0.17119411  0.49113070  0.16011142    -0.74600
C170        C  0.14980276  0.49783998  0.14326490     0.96200
C171        C  0.14874416  0.07694957  0.25157935     0.92600
Al172      Al  0.20642563  0.06762799  0.22130443     1.55600
O173        O  0.09700982  0.98716098  0.22481786    -0.79200
C174        C  0.23746520  0.02802303  0.19299056     0.96700
C175        C  0.18510296  0.09506992  0.16516846     0.91600
O176        O  0.15285709  0.06898070  0.16630177    -0.84500
O177        O  0.10977025  0.09683688  0.27521631    -0.84000
C178        C  0.20965110  0.23721819  0.30724134     0.95400
O179        O  0.21246317  0.21651938  0.28732444    -0.73100
O180        O  0.17999704  0.17079142  0.33998353    -0.76700
Al181      Al  0.18002167  0.16672742  0.29170217     1.49000
C182        C  0.15183770  0.14936588  0.35684177     0.90700
O183        O  0.08383387  0.15269328  0.33373902    -0.82900
O184        O  0.09813757  0.18097326  0.24960078    -0.76400
Al185      Al  0.09936738  0.12729538  0.30456542     1.90100
O186        O  0.11048021  0.20795592  0.31397795    -0.75500
O187        O  0.16745731  0.20981515  0.24072236    -0.75400
O188        O  0.17990863  0.23669159  0.30822469    -0.81000
O189        O  0.17595186  0.16262902  0.24341169    -0.79200
O190        O  0.13844703  0.16678154  0.29171128    -1.15400
O191        O  0.16247488  0.11693618  0.29610639    -0.74600
C192        C  0.13894573  0.09624621  0.27621333     0.96200
C193        C  0.09009028  0.18494861  0.33490297     0.92600
Al194      Al  0.13905478  0.20631373  0.27882994     1.55600
O195        O  0.12410119  0.12375369  0.34272630    -0.79200
C196        C  0.16926113  0.18404696  0.22659000     0.96700
C197        C  0.07204926  0.14872930  0.24842624     0.91600
O198        O  0.06929906  0.12571467  0.26936772    -0.84500
O199        O  0.05748662  0.32057102  0.30810312    -0.84000
C200        C  0.45781533  0.36119054  0.27632199     0.95400
O201        O  0.45495219  0.33766264  0.29620233    -0.73100
O202        O  0.98729077  0.32432497  0.24345228    -0.76700
Al203      Al  0.98729010  0.32024280  0.29173956     1.49000
C204        C  0.01544122  0.33108079  0.22657593     0.90700
O205        O  0.08348460  0.40234928  0.24960128    -0.82900
O206        O  0.06937512  0.41642025  0.33387207    -0.76400
Al207      Al  0.06793589  0.36142384  0.27877606     1.90100
O208        O  0.05701879  0.43106348  0.26953735    -0.75500
O209        O  0.00005431  0.37601038  0.34280149    -0.75400
O210        O  0.98759251  0.39041254  0.27535441    -0.81000
O211        O  0.49138164  0.32024628  0.34002774    -0.79200
O212        O  0.02892631  0.36188122  0.29173248    -1.15400
O213        O  0.00473096  0.28792882  0.28727318    -0.74600
C214        C  0.02826694  0.29079304  0.30713904     0.96200
C215        C  0.07729863  0.42838712  0.24851641     0.92600
Al216      Al  0.02844700  0.40087081  0.30468905     1.55600
O217        O  0.04309115  0.33305417  0.24065736    -0.79200
C218        C  0.49813905  0.34839354  0.35689099     0.96700
C219        C  0.09542437  0.41024322  0.33495840     0.91600
O220        O  0.09811470  0.38998008  0.31393397    -0.84500
O221        O  0.26390574  0.44274103  0.30825790    -0.84000
C222        C  0.40431242  0.04256982  0.27622234     0.95400
O223        O  0.38361712  0.04537103  0.29615696    -0.73100
O224        O  0.33791445  0.51295973  0.24348780    -0.76700
Al225      Al  0.33383045  0.51296098  0.29177136     1.49000
C226        C  0.31648321  0.48481161  0.22663635     0.90700
O227        O  0.31974083  0.41677550  0.24972160    -0.82900
O228        O  0.34803129  0.43103333  0.33382225    -0.76400
Al229      Al  0.29435725  0.43232742  0.27890486     1.90100
O230        O  0.37502356  0.44341247  0.26943705    -0.75500
O231        O  0.37688699  0.50032674  0.34273549    -0.75400
O232        O  0.40378880  0.51282923  0.27522075    -0.81000
O233        O  0.32970675  0.00886929  0.34005428    -0.79200
O234        O  0.33386033  0.47138149  0.29175120    -1.15400
O235        O  0.28403669  0.49544873  0.28736797    -0.74600
C236        C  0.26332487  0.47191471  0.30725763     0.96200
C237        C  0.35199787  0.42301931  0.24853442     0.92600
Al238      Al  0.37338926  0.47196220  0.30460692     1.55600
O239        O  0.29084478  0.45708847  0.24075580    -0.79200
C240        C  0.35112162  0.00216911  0.35687221     0.96700
C241        C  0.31577276  0.40496553  0.33501705     0.91600
O242        O  0.29275060  0.40224294  0.31410033    -0.84500
O243        O  0.43041372  0.27598035  0.14153177    -0.84000
C244        C  0.07084640  0.37584956  0.10957392     0.95400
O245        O  0.05012578  0.37864354  0.12948070    -0.73100
O246        O  0.50444902  0.34624430  0.07678585    -0.76700
Al247      Al  0.00033353  0.34622634  0.12506871     1.49000
C248        C  0.48303762  0.31809440  0.05992647     0.90700
O249        O  0.48630070  0.25009148  0.08293424    -0.82900
O250        O  0.01452804  0.26429670  0.16707449    -0.76400
Al251      Al  0.46088015  0.26559756  0.11214873     1.90100
O252        O  0.04156000  0.27671251  0.10270577    -0.75500
O253        O  0.04336565  0.33356069  0.17604401    -0.75400
O254        O  0.07030473  0.34610865  0.10855627    -0.81000
O255        O  0.99620966  0.34212710  0.17335699    -0.79200
O256        O  0.00037126  0.30465024  0.12503222    -1.15400
O257        O  0.45053666  0.32869067  0.12065316    -0.74600
C258        C  0.42984568  0.30516415  0.14055929     0.96200
C259        C  0.01856546  0.25634704  0.08176643     0.92600
Al260      Al  0.03989350  0.30522953  0.13789650     1.55600
O261        O  0.45736536  0.29039031  0.07403152    -0.79200
C262        C  0.01763621  0.33544795  0.19018110     0.96700
C263        C  0.48228021  0.23821810  0.16824579     0.91600
O264        O  0.45926693  0.23547872  0.14731017    -0.84500
O265        O  0.33332758  0.29027136  0.25948627    -0.84000
C266        C  0.34879597  0.35049868  0.14331985     0.95400
O267        O  0.32064091  0.32909697  0.16019489    -0.73100
O268        O  0.28827080  0.28347292  0.21294718    -0.76700
Al269      Al  0.32067755  0.33325427  0.20847920     1.49000
C270        C  0.29108425  0.26278084  0.19302617     0.90700
O271        O  0.39025741  0.29201808  0.18622218    -0.82900
O272        O  0.43148058  0.37432323  0.23067714    -0.76400
Al273      Al  0.36169881  0.29371672  0.22138131     1.90100
O274        O  0.41680707  0.34722529  0.16633802    -0.75500
O275        O  0.39095722  0.40315788  0.22484793    -0.75400
O276        O  0.37651491  0.37615513  0.15740872    -0.81000
O277        O  0.33822333  0.38303557  0.20400400    -0.79200
O278        O  0.36226876  0.33321254  0.20845056    -1.15400
O279        O  0.32480447  0.33743970  0.25676203    -0.74600
C280        C  0.33152529  0.31605088  0.27359543     0.96200
C281        C  0.41059271  0.31498181  0.16523409     0.92600
Al282      Al  0.40132513  0.37267233  0.19551815     1.55600
O283        O  0.32082271  0.26329767  0.19204213    -0.79200
C284        C  0.36177554  0.40373847  0.22387456     0.96700
C285        C  0.42875069  0.35135534  0.25166820     0.91600
O286        O  0.40264225  0.31911972  0.25056959    -0.84500
O287        O  0.33415235  0.29073220  0.32405808    -0.84000
C288        C  0.31878712  0.33563405  0.44024949     0.95400
O289        O  0.34694608  0.34240161  0.42338477    -0.73100
O290        O  0.37923115  0.32902394  0.37063210    -0.76700
Al291      Al  0.34693562  0.34649048  0.37509938     1.49000
C292        C  0.37632710  0.30548100  0.39051435     0.90700
O293        O  0.27709963  0.23562755  0.39725523    -0.82900
O294        O  0.23604507  0.27672406  0.35294673    -0.76400
Al295      Al  0.30572007  0.26585266  0.36213341     1.90100
O296        O  0.25073186  0.26440021  0.41727783    -0.75500
O297        O  0.27673667  0.34616152  0.35874999    -0.75400
O298        O  0.29116644  0.33372042  0.42616564    -0.81000
O299        O  0.32950703  0.37881499  0.37956354    -0.79200
O300        O  0.30527523  0.30485269  0.37510816    -1.15400
O301        O  0.34283731  0.34649889  0.32681622    -0.74600
C302        C  0.33604149  0.31833361  0.30996583     0.96200
C303        C  0.25684453  0.23831094  0.41830252     0.92600
Al304      Al  0.26627977  0.30532071  0.38808360     1.55600
O305        O  0.34653943  0.27627084  0.39147264    -0.79200
C306        C  0.30596382  0.37593663  0.35969756     0.96700
C307        C  0.23872932  0.25647024  0.33190107     0.91600
O308        O  0.26481189  0.25034289  0.33293798    -0.84500
O309        O  0.39090515  0.98727119  0.47483311    -0.84000
C310        C  0.29118730  0.02782557  0.44292869     0.95400
O311        O  0.28831739  0.00428637  0.46279968    -0.73100
O312        O  0.32070758  0.49092171  0.41011258    -0.76700
Al313      Al  0.32067660  0.98688106  0.45840017     1.49000
C314        C  0.34887598  0.49769894  0.39325825     0.90700
O315        O  0.41684407  0.06897474  0.41621817    -0.82900
O316        O  0.40270694  0.08308121  0.00050674    -0.76400
Al317      Al  0.40132687  0.02808276  0.44544700     1.90100
O318        O  0.39038833  0.09769797  0.43615763    -0.75500
O319        O  0.33339618  0.04266948  0.00943063    -0.75400
O320        O  0.32096573  0.05704415  0.44196296    -0.81000
O321        O  0.32472922  0.98690658  0.00669006    -0.79200
O322        O  0.36230269  0.02852790  0.45838779    -1.15400
O323        O  0.33816199  0.45456783  0.45400723    -0.74600
C324        C  0.36170359  0.45746847  0.47388971     0.96200
C325        C  0.41065850  0.09501469  0.41512921     0.92600
Al326      Al  0.36180287  0.06751541  0.47131318     1.55600
O327        O  0.37649153  0.99964869  0.40736022    -0.79200
C328        C  0.33146245  0.01505286  0.02354066     0.96700
C329        C  0.42877720  0.07694068  0.00159236     0.91600
O330        O  0.43150026  0.05669547  0.48057198    -0.84500
O331        O  0.27645847  0.43008010  0.10865282    -0.84000
C332        C  0.37628151  0.07050211  0.14052527     0.95400
O333        O  0.37907772  0.04979548  0.12061121    -0.73100
O334        O  0.34670101  0.50413570  0.17334034    -0.76700
Al335      Al  0.34666394  0.00001083  0.12505665     1.49000
C336        C  0.31855818  0.48271535  0.19022268     0.90700
O337        O  0.25048451  0.48595092  0.16716990    -0.82900
O338        O  0.26469275  0.01416582  0.08305056    -0.76400
Al339      Al  0.26603719  0.46054428  0.13799376     1.90100
O340        O  0.27711817  0.04120407  0.14740281    -0.75500
O341        O  0.33397829  0.04301123  0.07405617    -0.75400
O342        O  0.34653328  0.06995944  0.14154398    -0.81000
O343        O  0.34255468  0.99587122  0.07676938    -0.79200
O344        O  0.30507246  0.00003167  0.12509615    -1.15400
O345        O  0.32917917  0.45023750  0.12951891    -0.74600
C346        C  0.30565418  0.42952450  0.10963586     0.96200
C347        C  0.25672421  0.01820268  0.16833090     0.92600
Al348      Al  0.30564196  0.03954082  0.11221326     1.55600
O349        O  0.29082462  0.45706931  0.17613699    -0.79200
C350        C  0.33585877  0.01727915  0.05993347     0.96700
C351        C  0.23864320  0.48191155  0.08187723     0.91600
O352        O  0.23592491  0.45890054  0.10280816    -0.84500
O353        O  0.44308680  0.26341319  0.44191597    -0.84000
C354        C  0.04297024  0.40380064  0.47390133     0.95400
O355        O  0.04578096  0.38309768  0.45399039    -0.73100
O356        O  0.51334546  0.33739024  0.00666757    -0.76700
Al357      Al  0.51335267  0.33330709  0.45838405     1.49000
C358        C  0.48518069  0.31597506  0.02352293     0.90700
O359        O  0.41719720  0.31927247  0.00052035    -0.82900
O360        O  0.43143675  0.34752121  0.41634921    -0.76400
Al361      Al  0.43270227  0.29386443  0.47130153     1.90100
O362        O  0.44380626  0.37451852  0.48072199    -0.75500
O363        O  0.50073349  0.37636806  0.40741390    -0.75400
O364        O  0.51322371  0.40326139  0.47490525    -0.81000
O365        O  0.00927236  0.32920662  0.41009626    -0.79200
O366        O  0.47177068  0.33335023  0.45841774    -1.15400
O367        O  0.49580353  0.28351280  0.46278358    -0.74600
C368        C  0.47226850  0.26283196  0.44288613     0.96200
C369        C  0.42344525  0.35152789  0.00167504     0.92600
Al370      Al  0.47235930  0.37287205  0.44554581     1.55600
O371        O  0.45747885  0.29031792  0.00941289    -0.79200
C372        C  0.00258029  0.35062420  0.39327699     0.96700
C373        C  0.40534484  0.31528256  0.41519440     0.91600
O374        O  0.40259221  0.29227649  0.43614641    -0.84500
O375        O  0.29077487  0.33303970  0.49073906    -0.84000
C376        C  0.35092356  0.34839522  0.10691435     0.95400
O377        O  0.32951750  0.32025973  0.09003585    -0.73100
O378        O  0.28391948  0.28795098  0.03726784    -0.76700
Al379      Al  0.33370685  0.32031769  0.04175334     1.49000
C380        C  0.26321965  0.29076608  0.05718409     0.90700
O381        O  0.29251468  0.38991638  0.06401807    -0.82900
O382        O  0.37486774  0.43112622  0.01953090    -0.76400
Al383      Al  0.29421425  0.36138134  0.02885500     1.90100
O384        O  0.34773159  0.41646091  0.08388298    -0.75500
O385        O  0.40365930  0.39054540  0.02537931    -0.75400
O386        O  0.37660507  0.37611139  0.09283016    -0.81000
O387        O  0.38348748  0.33781990  0.04624539    -0.79200
O388        O  0.33369834  0.36191847  0.04178056    -1.15400
O389        O  0.33791766  0.32445848  0.49346910    -0.74600
C390        C  0.31653262  0.33118387  0.47662991     0.96200
C391        C  0.31548232  0.41025545  0.08498997     0.92600
Al392      Al  0.37317518  0.40094786  0.05470742     1.55600
O393        O  0.26375990  0.32050764  0.05818154    -0.79200
C394        C  0.40420437  0.36134839  0.02635633     0.96700
C395        C  0.35188999  0.42841763  0.49856087     0.91600
O396        O  0.31964341  0.40232548  0.99968181    -0.84500
O397        O  0.16747557  0.45733839  0.99071093    -0.84000
C398        C  0.15205951  0.50227111  0.60688326     0.95400
O399        O  0.18020418  0.00902276  0.59002518    -0.73100
O400        O  0.21253061  0.49564178  0.53730587    -0.76700
Al401      Al  0.18022876  0.51310441  0.54174215     1.49000
C402        C  0.20962489  0.47210190  0.55719373     0.90700
O403        O  0.11039500  0.40224824  0.56390669    -0.82900
O404        O  0.06935617  0.44332169  0.51958099    -0.76400
Al405      Al  0.13903087  0.43246588  0.52878874     1.90100
O406        O  0.08402810  0.43103023  0.58391085    -0.75500
O407        O  0.11002059  0.51275555  0.52536271    -0.75400
O408        O  0.12444190  0.50034744  0.59278676    -0.81000
O409        O  0.16277105  0.04541856  0.54617567    -0.79200
O410        O  0.13857471  0.47146602  0.54174814    -1.15400
O411        O  0.17615214  0.51310260  0.99345933    -0.74600
C412        C  0.16937526  0.48494218  0.97661175     0.96200
C413        C  0.09013591  0.40493935  0.58494333     0.92600
Al414      Al  0.09957256  0.47193206  0.55470841     1.55600
O415        O  0.17984017  0.44288904  0.55814658    -0.79200
C416        C  0.13922079  0.04252832  0.52630959     0.96700
C417        C  0.07205027  0.42306800  0.99854412     0.91600
O418        O  0.09813764  0.41694984  0.49958315    -0.84500
O419        O  0.16671565  0.45691095  0.92612030    -0.84000
C420        C  0.18212554  0.01717800  0.80995752     0.95400
O421        O  0.15398360  0.99576300  0.82684114    -0.73100
O422        O  0.12164879  0.45011329  0.87958678    -0.76700
Al423      Al  0.15402738  0.99990506  0.87512267     1.49000
C424        C  0.12446588  0.42943477  0.85965169     0.90700
O425        O  0.22364642  0.45871303  0.85283922    -0.82900
O426        O  0.26482575  0.04101171  0.89733775    -0.76400
Al427      Al  0.19508238  0.46037837  0.88799932     1.90100
O428        O  0.25020642  0.01394734  0.83299608    -0.75500
O429        O  0.22427484  0.06982747  0.89149798    -0.75400
O430        O  0.20986204  0.04282286  0.82404082    -0.81000
O431        O  0.17154243  0.04967874  0.87064997    -0.79200
O432        O  0.19562794  0.99988334  0.87508358    -1.15400
O433        O  0.15816683  0.50406523  0.92340842    -0.74600
C434        C  0.16488851  0.48267373  0.94023703     0.96200
C435        C  0.24401564  0.48170320  0.83188729     0.92600
Al436      Al  0.23467563  0.03935970  0.86216710     1.55600
O437        O  0.15420826  0.42996227  0.85865576    -0.79200
C438        C  0.19508223  0.07038807  0.89052375     0.96700
C439        C  0.26211661  0.01802057  0.91829110     0.91600
O440        O  0.23602514  0.48576756  0.91717802    -0.84500
O441        O  0.00001947  0.12368122  0.59272585    -0.84000
C442        C  0.01546851  0.18386428  0.97653842     0.95400
O443        O  0.98732002  0.16245795  0.99341804    -0.73100
O444        O  0.45497336  0.11685137  0.54618377    -0.76700
Al445      Al  0.98735229  0.16663111  0.54169874     1.49000
C446        C  0.45780517  0.09615996  0.52627790     0.90700
O447        O  0.05697036  0.12543049  0.51949758    -0.82900
O448        O  0.09816670  0.20774932  0.56393474    -0.76400
Al449      Al  0.02840367  0.12712885  0.55463492     1.90100
O450        O  0.08351499  0.18062776  0.49958923    -0.75500
O451        O  0.05759483  0.23655812  0.55807063    -0.75400
O452        O  0.04319079  0.20952529  0.99062199    -0.81000
O453        O  0.00487093  0.21640674  0.53720080    -0.79200
O454        O  0.02895589  0.16661109  0.54168469    -1.15400
O455        O  0.49147027  0.17083244  0.58998203    -0.74600
C456        C  0.49819556  0.14945186  0.60682558     0.96200
C457        C  0.07730795  0.14838354  0.99850719     0.92600
Al458      Al  0.06800343  0.20607550  0.52875331     1.55600
O459        O  0.98755048  0.09669483  0.52529747    -0.79200
C460        C  0.02839608  0.23711163  0.55708908     0.96700
C461        C  0.09544046  0.18477846  0.58492352     0.91600
O462        O  0.06933259  0.15254357  0.58382225    -0.84500
O463        O  0.23704125  0.17947746  0.94192195    -0.84000
C464        C  0.09656980  0.13854317  0.97386427     0.95400
O465        O  0.11727355  0.16204773  0.95395405    -0.73100
O466        O  0.16291662  0.17546577  0.50669644    -0.76700
Al467      Al  0.16705856  0.17956341  0.95840756     1.49000
C468        C  0.18433504  0.16878542  0.52353409     0.90700
O469        O  0.18127229  0.09762644  0.50044121    -0.82900
O470        O  0.15300989  0.08337452  0.91637994    -0.76400
Al471      Al  0.20662829  0.13858245  0.97126394     1.90100
O472        O  0.12598009  0.06885450  0.98074716    -0.75500
O473        O  0.12411792  0.12368782  0.90736491    -0.75400
O474        O  0.09713339  0.10935815  0.97487521    -0.81000
O475        O  0.17117784  0.17956772  0.91012627    -0.79200
O476        O  0.16709974  0.13799097  0.95839434    -1.15400
O477        O  0.21684259  0.21199149  0.96284416    -0.74600
C478        C  0.23756914  0.20921273  0.94293592     0.96200
C479        C  0.14901488  0.07156409  0.50164388     0.92600
Al480      Al  0.12760419  0.09893360  0.94553858     1.55600
O481        O  0.21007590  0.16690303  0.50941273    -0.79200
C482        C  0.14975323  0.15142627  0.89325977     0.96700
C483        C  0.18528107  0.08965439  0.91518315     0.91600
O484        O  0.20830445  0.11007549  0.93607358    -0.84500
O485        O  0.45776322  0.16704556  0.75940017    -0.84000
C486        C  0.50269167  0.15173041  0.64319794     0.95400
O487        O  0.00945166  0.17988111  0.66005217    -0.73100
O488        O  0.49603880  0.21212437  0.71280493    -0.76700
Al489      Al  0.51354523  0.17986821  0.70833725     1.49000
C490        C  0.47248568  0.20920756  0.69293115     0.90700
O491        O  0.40266524  0.10998800  0.68622380    -0.82900
O492        O  0.44380029  0.06897595  0.73049229    -0.76400
Al493      Al  0.43289066  0.13861373  0.72133391     1.90100
O494        O  0.43148849  0.08368636  0.66616708    -0.75500
O495        O  0.51324832  0.10969404  0.72469413    -0.75400
O496        O  0.50082526  0.12413731  0.65728773    -0.81000
O497        O  0.04589990  0.16246702  0.70387584    -0.79200
O498        O  0.47191328  0.13820109  0.70834509    -1.15400
O499        O  0.51355981  0.17577690  0.75661907    -0.74600
C500        C  0.48539144  0.16897872  0.77348299     0.96200
C501        C  0.40537528  0.08976963  0.66515962     0.92600
Al502      Al  0.47240726  0.09923076  0.69536229     1.55600
O503        O  0.44327894  0.17941764  0.69198603    -0.79200
C504        C  0.04302265  0.13892318  0.72374465     0.96700
C505        C  0.42355148  0.07164903  0.75155828     0.91600
O506        O  0.41741341  0.09772074  0.75053848    -0.84500
O507        O  0.22412165  0.15392220  0.64149297    -0.84000
C508        C  0.12449560  0.19458919  0.60958737     0.95400
O509        O  0.12160267  0.17105067  0.62947265    -0.73100
O510        O  0.15395739  0.15766080  0.57678556    -0.76700
Al511      Al  0.15392876  0.15360104  0.62507343     1.49000
C512        C  0.18211616  0.16440804  0.55992825     0.90700
O513        O  0.25014650  0.23566691  0.58294927    -0.82900
O514        O  0.23599561  0.24975740  0.66723484    -0.76400
Al515      Al  0.23458280  0.19475895  0.61214447     1.90100
O516        O  0.22372180  0.26442163  0.60288341    -0.75500
O517        O  0.16665867  0.20937853  0.67610268    -0.75400
O518        O  0.15428510  0.22380062  0.60863299    -0.81000
O519        O  0.15799211  0.15361943  0.67336259    -0.79200
O520        O  0.19557263  0.19523175  0.62507308    -1.15400
O521        O  0.17136181  0.12126933  0.62066687    -0.74600
C522        C  0.19490638  0.12414150  0.64053025     0.96200
C523        C  0.24398985  0.26172396  0.58186493     0.92600
Al524      Al  0.19510188  0.23423263  0.63801228     1.55600
O525        O  0.20974934  0.16636816  0.57403094    -0.79200
C526        C  0.16476559  0.18178029  0.69020905     0.96700
C527        C  0.26204846  0.24358645  0.66832757     0.91600
O528        O  0.26475207  0.22333255  0.64730122    -0.84500
O529        O  0.04323807  0.20948400  0.92603868    -0.84000
C530        C  0.48313625  0.16451324  0.80985999     0.95400
O531        O  0.50453725  0.15780540  0.82669174    -0.73100
O532        O  0.05012580  0.17120720  0.87945679    -0.76700
Al533      Al  0.50034249  0.15366734  0.87497600     1.49000
C534        C  0.07083007  0.19474504  0.85956889     0.90700
O535        O  0.04142709  0.26444478  0.85275116    -0.82900
O536        O  0.45909395  0.22321490  0.89726108    -0.76400
Al537      Al  0.03977029  0.23429602  0.88791820     1.90100
O538        O  0.48619969  0.23562934  0.83290824    -0.75500
O539        O  0.43036916  0.15379110  0.89142938    -0.75400
O540        O  0.45736467  0.16634006  0.82397509    -0.81000
O541        O  0.45055817  0.12126502  0.87050535    -0.79200
O542        O  0.50030092  0.19524959  0.87500345    -1.15400
O543        O  0.99617202  0.15361745  0.92325931    -0.74600
C544        C  0.01757672  0.18175984  0.94013120     0.96200
C545        C  0.01844511  0.26172789  0.83178710     0.92600
Al546      Al  0.46079692  0.19467948  0.86209152     1.55600
O547        O  0.07026004  0.22392579  0.85858557    -0.79200
C548        C  0.42985604  0.12406012  0.89043324     0.96700
C549        C  0.48207504  0.24356707  0.91822034     0.91600
O550        O  0.01432572  0.24978689  0.91709334    -0.84500
O551        O  0.12402226  0.99969343  0.65736178    -0.84000
C552        C  0.18420962  0.01509509  0.77354497     0.95400
O553        O  0.16279217  0.98695924  0.75667158    -0.73100
O554        O  0.11720796  0.45462699  0.70390932    -0.76700
Al555      Al  0.16696788  0.98699764  0.70838927     1.49000
C556        C  0.09650629  0.45743128  0.72382956     0.90700
O557        O  0.12575506  0.05657733  0.73063808    -0.82900
O558        O  0.20809888  0.09777061  0.68611281    -0.76400
Al559      Al  0.12745148  0.02803592  0.69547917     1.90100
O560        O  0.18099404  0.08316204  0.75045595    -0.75500
O561        O  0.23691017  0.05721350  0.69199237    -0.75400
O562        O  0.20986547  0.04282512  0.75945164    -0.81000
O563        O  0.21674676  0.00450103  0.71288285    -0.79200
O564        O  0.16694750  0.02859060  0.70840016    -1.15400
O565        O  0.17119406  0.49113077  0.66011142    -0.74600
C566        C  0.14980314  0.49784001  0.64326491     0.96200
C567        C  0.14874513  0.07694997  0.75157961     0.92600
Al568      Al  0.20642568  0.06762798  0.72130445     1.55600
O569        O  0.09700980  0.98716111  0.72481786    -0.79200
C570        C  0.23746505  0.02802287  0.69299056     0.96700
C571        C  0.18510381  0.09507028  0.66516884     0.91600
O572        O  0.15285695  0.06898063  0.66630172    -0.84500
O573        O  0.10977051  0.09683685  0.77521628    -0.84000
C574        C  0.20965093  0.23721838  0.80724147     0.95400
O575        O  0.21246315  0.21651937  0.78732434    -0.73100
O576        O  0.17999690  0.17079137  0.83998355    -0.76700
Al577      Al  0.18002170  0.16672747  0.79170218     1.49000
C578        C  0.15183820  0.14936631  0.85684176     0.90700
O579        O  0.08383384  0.15269336  0.83373897    -0.82900
O580        O  0.09813747  0.18097316  0.74960075    -0.76400
Al581      Al  0.09936738  0.12729537  0.80456536     1.90100
O582        O  0.11048023  0.20795597  0.81397787    -0.75500
O583        O  0.16745730  0.20981514  0.74072232    -0.75400
O584        O  0.17990856  0.23669151  0.80822463    -0.81000
O585        O  0.17595188  0.16262902  0.74341170    -0.79200
O586        O  0.13844706  0.16678158  0.79171130    -1.15400
O587        O  0.16247506  0.11693629  0.79610653    -0.74600
C588        C  0.13894495  0.09624589  0.77621299     0.96200
C589        C  0.09009005  0.18494813  0.83490322     0.92600
Al590      Al  0.13905470  0.20631372  0.77882994     1.55600
O591        O  0.12410106  0.12375358  0.84272625    -0.79200
C592        C  0.16926107  0.18404694  0.72659000     0.96700
C593        C  0.07204931  0.14872937  0.74842618     0.91600
O594        O  0.06929903  0.12571456  0.76936765    -0.84500
O595        O  0.05748664  0.32057102  0.80810311    -0.84000
C596        C  0.45781479  0.36118950  0.77632241     0.95400
O597        O  0.45495232  0.33766287  0.79620220    -0.73100
O598        O  0.98729071  0.32432491  0.74345227    -0.76700
Al599      Al  0.98729011  0.32024276  0.79173955     1.49000
C600        C  0.01544155  0.33108081  0.72657596     0.90700
O601        O  0.08348464  0.40234913  0.74960128    -0.82900
O602        O  0.06937512  0.41642018  0.83387222    -0.76400
Al603      Al  0.06793591  0.36142390  0.77877606     1.90100
O604        O  0.05701889  0.43106343  0.76953738    -0.75500
O605        O  0.00005429  0.37601035  0.84280146    -0.75400
O606        O  0.98759276  0.39041279  0.77535431    -0.81000
O607        O  0.49138155  0.32024598  0.84002767    -0.79200
O608        O  0.02892636  0.36188126  0.79173249    -1.15400
O609        O  0.00473095  0.28792879  0.78727312    -0.74600
C610        C  0.02826691  0.29079295  0.80713898     0.96200
C611        C  0.07729839  0.42838751  0.74851666     0.92600
Al612      Al  0.02844692  0.40087074  0.80468911     1.55600
O613        O  0.04309114  0.33305420  0.74065733    -0.79200
C614        C  0.49813906  0.34839413  0.85689101     0.96700
C615        C  0.09542422  0.41024314  0.83495842     0.91600
O616        O  0.09811477  0.38998017  0.81393400    -0.84500
O617        O  0.26390577  0.44274094  0.80825790    -0.84000
C618        C  0.40431263  0.04256971  0.77622222     0.95400
O619        O  0.38361709  0.04537101  0.79615700    -0.73100
O620        O  0.33791454  0.51295987  0.74348778    -0.76700
Al621      Al  0.33383037  0.51296093  0.79177129     1.49000
C622        C  0.31648263  0.48481093  0.72663633     0.90700
O623        O  0.31974076  0.41677557  0.74972159    -0.82900
O624        O  0.34803109  0.43103317  0.83382223    -0.76400
Al625      Al  0.29435723  0.43232747  0.77890487     1.90100
O626        O  0.37502353  0.44341240  0.76943709    -0.75500
O627        O  0.37688714  0.50032674  0.84273542    -0.75400
O628        O  0.40378888  0.51282923  0.77522071    -0.81000
O629        O  0.32970665  0.00886937  0.84005415    -0.79200
O630        O  0.33386031  0.47138145  0.79175116    -1.15400
O631        O  0.28403657  0.49544862  0.78736794    -0.74600
C632        C  0.26332495  0.47191509  0.80725758     0.96200
C633        C  0.35199797  0.42301935  0.74853444     0.92600
Al634      Al  0.37338929  0.47196220  0.80460690     1.55600
O635        O  0.29084487  0.45708862  0.74075572    -0.79200
C636        C  0.35112244  0.00216920  0.85687221     0.96700
C637        C  0.31577349  0.40496598  0.83501725     0.91600
O638        O  0.29275051  0.40224290  0.81410021    -0.84500
O639        O  0.43041376  0.27598025  0.64153177    -0.84000
C640        C  0.07084648  0.37584959  0.60957393     0.95400
O641        O  0.05012576  0.37864350  0.62948065    -0.73100
O642        O  0.50444896  0.34624419  0.57678586    -0.76700
Al643      Al  0.00033355  0.34622632  0.62506869     1.49000
C644        C  0.48303797  0.31809469  0.55992645     0.90700
O645        O  0.48630097  0.25009147  0.58293425    -0.82900
O646        O  0.01452794  0.26429657  0.66707449    -0.76400
Al647      Al  0.46088017  0.26559755  0.61214871     1.90100
O648        O  0.04155988  0.27671244  0.60270563    -0.75500
O649        O  0.04336574  0.33356074  0.67604401    -0.75400
O650        O  0.07030479  0.34610862  0.60855629    -0.81000
O651        O  0.99620972  0.34212710  0.67335707    -0.79200
O652        O  0.00037128  0.30465019  0.62503221    -1.15400
O653        O  0.45053671  0.32869058  0.62065315    -0.74600
C654        C  0.42984582  0.30516437  0.64055927     0.96200
C655        C  0.01856627  0.25634745  0.58176671     0.92600
Al656      Al  0.03989357  0.30522963  0.63789649     1.55600
O657        O  0.45736527  0.29039020  0.57403157    -0.79200
C658        C  0.01763603  0.33544806  0.69018107     0.96700
C659        C  0.48228000  0.23821802  0.66824575     0.91600
O660        O  0.45926709  0.23547875  0.64731021    -0.84500
O661        O  0.33332760  0.29027155  0.75948636    -0.84000
C662        C  0.34879636  0.35049897  0.64331987     0.95400
O663        O  0.32064076  0.32909690  0.66019493    -0.73100
O664        O  0.28827079  0.28347292  0.71294724    -0.76700
Al665      Al  0.32067755  0.33325426  0.70847923     1.49000
C666        C  0.29108450  0.26278075  0.69302603     0.90700
O667        O  0.39025742  0.29201814  0.68622215    -0.82900
O668        O  0.43148046  0.37432303  0.73067734    -0.76400
Al669      Al  0.36169890  0.29371678  0.72138130     1.90100
O670        O  0.41680710  0.34722537  0.66633803    -0.75500
O671        O  0.39095721  0.40315790  0.72484793    -0.75400
O672        O  0.37651478  0.37615500  0.65740869    -0.81000
O673        O  0.33822335  0.38303561  0.70400404    -0.79200
O674        O  0.36226873  0.33321260  0.70845055    -1.15400
O675        O  0.32480448  0.33743986  0.75676201    -0.74600
C676        C  0.33152528  0.31605014  0.77359532     0.96200
C677        C  0.41059271  0.31498160  0.66523416     0.92600
Al678      Al  0.40132511  0.37267238  0.69551815     1.55600
O679        O  0.32082258  0.26329761  0.69204218    -0.79200
C680        C  0.36177541  0.40373851  0.72387453     0.96700
C681        C  0.42875130  0.35135643  0.75166781     0.91600
O682        O  0.40264203  0.31911944  0.75056956    -0.84500
O683        O  0.33415228  0.29073194  0.82405811    -0.84000
C684        C  0.31878708  0.33563416  0.94024948     0.95400
O685        O  0.34694610  0.34240152  0.92338466    -0.73100
O686        O  0.37923109  0.32902383  0.87063218    -0.76700
Al687      Al  0.34693563  0.34649047  0.87509936     1.49000
C688        C  0.37632706  0.30548099  0.89051426     0.90700
O689        O  0.27709948  0.23562748  0.89725534    -0.82900
O690        O  0.23604497  0.27672409  0.85294677    -0.76400
Al691      Al  0.30572002  0.26585264  0.86213341     1.90100
O692        O  0.25073180  0.26440022  0.91727787    -0.75500
O693        O  0.27673686  0.34616170  0.85875000    -0.75400
O694        O  0.29116653  0.33372048  0.92616560    -0.81000
O695        O  0.32950725  0.37881510  0.87956356    -0.79200
O696        O  0.30527519  0.30485270  0.87510813    -1.15400
O697        O  0.34283730  0.34649863  0.82681608    -0.74600
C698        C  0.33604150  0.31833428  0.80996598     0.96200
C699        C  0.25684462  0.23831084  0.91830238     0.92600
Al700      Al  0.26627976  0.30532070  0.88808356     1.55600
O701        O  0.34653932  0.27627075  0.89147268    -0.79200
C702        C  0.30596318  0.37593621  0.85969728     0.96700
C703        C  0.23872934  0.25647004  0.83190087     0.91600
O704        O  0.26481181  0.25034294  0.83293799    -0.84500
O705        O  0.39090507  0.98727116  0.97483304    -0.84000
C706        C  0.29118686  0.02782481  0.94292900     0.95400
O707        O  0.28831752  0.00428663  0.96279956    -0.73100
O708        O  0.32070735  0.49092162  0.91011257    -0.76700
Al709      Al  0.32067660  0.98688104  0.95840020     1.49000
C710        C  0.34887645  0.49769894  0.89325820     0.90700
O711        O  0.41684414  0.06897459  0.91621816    -0.82900
O712        O  0.40270677  0.08308133  0.50050668    -0.76400
Al713      Al  0.40132688  0.02808285  0.94544696     1.90100
O714        O  0.39038848  0.09769795  0.93615756    -0.75500
O715        O  0.33339617  0.04266920  0.50943075    -0.75400
O716        O  0.32096596  0.05704440  0.94196290    -0.81000
O717        O  0.32472921  0.98690633  0.50668995    -0.79200
O718        O  0.36230277  0.02852795  0.95838782    -1.15400
O719        O  0.33816194  0.45456774  0.95400722    -0.74600
C720        C  0.36170383  0.45746854  0.97388984     0.96200
C721        C  0.41065822  0.09501510  0.91512955     0.92600
Al722      Al  0.36180283  0.06751540  0.97131324     1.55600
O723        O  0.37649175  0.99964868  0.90736027    -0.79200
C724        C  0.33146258  0.01505398  0.52354070     0.96700
C725        C  0.42877775  0.07694026  0.50159194     0.91600
O726        O  0.43150032  0.05669535  0.98057180    -0.84500
O727        O  0.27645835  0.43008007  0.60865277    -0.84000
C728        C  0.37628161  0.07050202  0.64052513     0.95400
O729        O  0.37907773  0.04979545  0.62061122    -0.73100
O730        O  0.34670084  0.50413554  0.67334038    -0.76700
Al731      Al  0.34666392  0.00001075  0.62505665     1.49000
C732        C  0.31855882  0.48271586  0.69022264     0.90700
O733        O  0.25048446  0.48595071  0.66717000    -0.82900
O734        O  0.26469284  0.01416584  0.58305064    -0.76400
Al735      Al  0.26603722  0.46054435  0.63799380     1.90100
O736        O  0.27711818  0.04120404  0.64740290    -0.75500
O737        O  0.33397825  0.04301143  0.57405629    -0.75400
O738        O  0.34653322  0.06995939  0.64154401    -0.81000
O739        O  0.34255454  0.99587134  0.57676928    -0.79200
O740        O  0.30507246  0.00003165  0.62509618    -1.15400
O741        O  0.32917907  0.45023749  0.62951887    -0.74600
C742        C  0.30565440  0.42952450  0.60963593     0.96200
C743        C  0.25672419  0.01820272  0.66833088     0.92600
Al744      Al  0.30564198  0.03954078  0.61221330     1.55600
O745        O  0.29082449  0.45706911  0.67613690    -0.79200
C746        C  0.33585886  0.01727809  0.55993347     0.96700
C747        C  0.23864344  0.48191192  0.58187712     0.91600
O748        O  0.23592491  0.45890052  0.60280827    -0.84500
O749        O  0.44308676  0.26341321  0.94191597    -0.84000
C750        C  0.04297014  0.40380083  0.97390154     0.95400
O751        O  0.04578094  0.38309752  0.95399032    -0.73100
O752        O  0.51334547  0.33739031  0.50666748    -0.76700
Al753      Al  0.51335274  0.33330710  0.95838410     1.49000
C754        C  0.48518031  0.31597468  0.52352293     0.90700
O755        O  0.41719719  0.31927253  0.50052025    -0.82900
O756        O  0.43143670  0.34752115  0.91634917    -0.76400
Al757      Al  0.43270231  0.29386444  0.97130158     1.90100
O758        O  0.44380614  0.37451839  0.98072208    -0.75500
O759        O  0.50073342  0.37636815  0.90741392    -0.75400
O760        O  0.51322385  0.40326128  0.97490522    -0.81000
O761        O  0.00927234  0.32920650  0.91009630    -0.79200
O762        O  0.47177069  0.33335015  0.95841780    -1.15400
O763        O  0.49580354  0.28351282  0.96278360    -0.74600
C764        C  0.47226864  0.26283190  0.94288618     0.96200
C765        C  0.42344495  0.35152747  0.50167531     0.92600
Al766      Al  0.47235930  0.37287199  0.94554581     1.55600
O767        O  0.45747884  0.29031798  0.50941291    -0.79200
C768        C  0.00258020  0.35062438  0.89327699     0.96700
C769        C  0.40534483  0.31528235  0.91519448     0.91600
O770        O  0.40259220  0.29227647  0.93614639    -0.84500
O771        O  0.29077484  0.33303973  0.99073902    -0.84000
C772        C  0.35092314  0.34839477  0.60691435     0.95400
O773        O  0.32951755  0.32025977  0.59003588    -0.73100
O774        O  0.28391939  0.28795093  0.53726793    -0.76700
Al775      Al  0.33370683  0.32031765  0.54175330     1.49000
C776        C  0.26321975  0.29076604  0.55718410     0.90700
O777        O  0.29251467  0.38991641  0.56401808    -0.82900
O778        O  0.37486768  0.43112621  0.51953078    -0.76400
Al779      Al  0.29421422  0.36138134  0.52885500     1.90100
O780        O  0.34773167  0.41646092  0.58388287    -0.75500
O781        O  0.40365930  0.39054534  0.52537934    -0.75400
O782        O  0.37660504  0.37611149  0.59283014    -0.81000
O783        O  0.38348735  0.33781981  0.54624548    -0.79200
O784        O  0.33369827  0.36191847  0.54178057    -1.15400
O785        O  0.33791764  0.32445853  0.99346914    -0.74600
C786        C  0.31653278  0.33118396  0.97662986     0.96200
C787        C  0.31548199  0.41025532  0.58498994     0.92600
Al788      Al  0.37317514  0.40094787  0.55470741     1.55600
O789        O  0.26375981  0.32050761  0.55818154    -0.79200
C790        C  0.40420462  0.36134881  0.52635609     0.96700
C791        C  0.35188981  0.42841753  0.99856082     0.91600
O792        O  0.31964333  0.40232538  0.49968177    -0.84500
O793        O  0.16747664  0.95735169  0.49070039    -0.84000
C794        C  0.15204068  0.00226050  0.10687841     0.95400
O795        O  0.18022238  0.50903061  0.09002831    -0.73100
O796        O  0.21252172  0.99564721  0.03730209    -0.76700
Al797      Al  0.18021600  0.01310457  0.04173943     1.49000
C798        C  0.20961518  0.97210424  0.05718627     0.90700
O799        O  0.11038701  0.90223930  0.06388195    -0.82900
O800        O  0.06934578  0.94331289  0.01956862    -0.76400
Al801      Al  0.13902600  0.93246763  0.02877019     1.90100
O802        O  0.08402130  0.93101800  0.08389690    -0.75500
O803        O  0.11000418  0.01274692  0.02535626    -0.75400
O804        O  0.12442119  0.00033342  0.09277997    -0.81000
O805        O  0.16279098  0.54542527  0.04617450    -0.79200
O806        O  0.13856444  0.97146299  0.04173764    -1.15400
O807        O  0.17614558  0.01311236  0.49345643    -0.74600
C808        C  0.16937211  0.98495529  0.47660527     0.96200
C809        C  0.09013175  0.90492917  0.08492494     0.92600
Al810      Al  0.09955882  0.97192131  0.05469820     1.55600
O811        O  0.17983224  0.94288863  0.05813195    -0.79200
C812        C  0.13923912  0.54253599  0.02631229     0.96700
C813        C  0.07204340  0.92306719  0.49852517     0.91600
O814        O  0.09813494  0.91695443  0.99955857    -0.84500
O815        O  0.16670805  0.95692452  0.42611489    -0.84000
C816        C  0.18214225  0.51717943  0.30996303     0.95400
O817        O  0.15400108  0.49576096  0.32684424    -0.73100
O818        O  0.12163477  0.95012194  0.37958717    -0.76700
Al819      Al  0.15403983  0.49989644  0.37512709     1.49000
C820        C  0.12444931  0.92944135  0.35965367     0.90700
O821        O  0.22363136  0.95871908  0.35283295    -0.82900
O822        O  0.26483575  0.54099839  0.39734383    -0.76400
Al823      Al  0.19507106  0.96038828  0.38799424     1.90100
O824        O  0.25021664  0.51394117  0.33300160    -0.75500
O825        O  0.22428717  0.56981779  0.39150955    -0.75400
O826        O  0.20987809  0.54282292  0.32405008    -0.81000
O827        O  0.17155505  0.54967079  0.37066018    -0.79200
O828        O  0.19563976  0.49987466  0.37508969    -1.15400
O829        O  0.15815956  0.00407910  0.42340370    -0.74600
C830        C  0.16488295  0.98268825  0.44023150     0.96200
C831        C  0.24400295  0.98170761  0.33188273     0.92600
Al832      Al  0.23468774  0.53935194  0.36217554     1.55600
O833        O  0.15419301  0.92997010  0.35865457    -0.79200
C834        C  0.19509541  0.57038010  0.39053365     0.96700
C835        C  0.26212461  0.51800627  0.41829725     0.91600
O836        O  0.23601809  0.98578022  0.41717063    -0.84500
O837        O  0.00002380  0.62366583  0.09271964    -0.84000
C838        C  0.01545658  0.68384776  0.47653198     0.95400
O839        O  0.98730965  0.66243621  0.49341133    -0.73100
O840        O  0.45497396  0.61682695  0.04617891    -0.76700
Al841      Al  0.98734309  0.66660789  0.04169281     1.49000
C842        C  0.45781057  0.59613989  0.02627018     0.90700
O843        O  0.05697643  0.62542585  0.01948663    -0.82900
O844        O  0.09816185  0.70774295  0.06392224    -0.76400
Al845      Al  0.02840800  0.62711815  0.05462566     1.90100
O846        O  0.08351007  0.68062178  0.99957585    -0.75500
O847        O  0.05757925  0.73654154  0.05806142    -0.75400
O848        O  0.04317587  0.70951089  0.49061619    -0.81000
O849        O  0.00485091  0.71638229  0.03719743    -0.79200
O850        O  0.02895103  0.66659641  0.04167627    -1.15400
O851        O  0.49146297  0.67080979  0.08997530    -0.74600
C852        C  0.49819545  0.64943534  0.10681884     0.96200
C853        C  0.07731020  0.64838030  0.49849457     0.92600
Al854      Al  0.06799356  0.70606426  0.02874332     1.55600
O855        O  0.98755713  0.59667952  0.02528931    -0.79200
C856        C  0.02837931  0.73709231  0.05708174     0.96700
C857        C  0.09543991  0.68477307  0.08491092     0.91600
O858        O  0.06933557  0.65253740  0.08381059    -0.84500
O859        O  0.23705116  0.67948200  0.44191874    -0.84000
C860        C  0.09657613  0.63854248  0.47385328     0.95400
O861        O  0.11728162  0.66204829  0.45394413    -0.73100
O862        O  0.16292038  0.67546515  0.00668977    -0.76700
Al863      Al  0.16706695  0.67956509  0.45840189     1.49000
C864        C  0.18433877  0.66878488  0.02352801     0.90700
O865        O  0.18128702  0.59763327  0.00044099    -0.82900
O866        O  0.15302508  0.58337205  0.41638403    -0.76400
Al867      Al  0.20664076  0.63858805  0.47126221     1.90100
O868        O  0.12599291  0.56886009  0.48075005    -0.75500
O869        O  0.12413712  0.62368701  0.40735616    -0.75400
O870        O  0.09714288  0.60935965  0.47486579    -0.81000
O871        O  0.17118998  0.67957175  0.41012159    -0.79200
O872        O  0.16711129  0.63799367  0.45839020    -1.15400
O873        O  0.21685072  0.71199448  0.46284137    -0.74600
C874        C  0.23757676  0.70921639  0.44293200     0.96200
C875        C  0.14902873  0.57157027  0.00164535     0.92600
Al876      Al  0.12761801  0.59893496  0.44553553     1.55600
O877        O  0.21008404  0.66690970  0.00940817    -0.79200
C878        C  0.14976956  0.65143083  0.39325318     0.96700
C879        C  0.18529625  0.58965219  0.41518837     0.91600
O880        O  0.20832063  0.61007919  0.43607505    -0.84500
O881        O  0.45776886  0.66704770  0.25939168    -0.84000
C882        C  0.50269532  0.65171846  0.14319136     0.95400
O883        O  0.00945345  0.67987154  0.16004227    -0.73100
O884        O  0.49604183  0.71212112  0.21279077    -0.76700
Al885      Al  0.51354949  0.67986563  0.20832801     1.49000
C886        C  0.47248524  0.70920153  0.19291890     0.90700
O887        O  0.40267259  0.60998186  0.18622166    -0.82900
O888        O  0.44380737  0.56897356  0.23049109    -0.76400
Al889      Al  0.43289629  0.63861028  0.22132885     1.90100
O890        O  0.43149844  0.58368287  0.16616435    -0.75500
O891        O  0.51325527  0.60969361  0.22469312    -0.75400
O892        O  0.50083347  0.62413014  0.15728474    -0.81000
O893        O  0.04590475  0.66246508  0.20387027    -0.79200
O894        O  0.47191930  0.63819812  0.20833997    -1.15400
O895        O  0.51356580  0.67578065  0.25661125    -0.74600
C896        C  0.48539735  0.66898273  0.27347504     0.96200
C897        C  0.40538602  0.58976649  0.16515590     0.92600
Al898      Al  0.47241475  0.59922709  0.19536036     1.55600
O899        O  0.44328000  0.67941090  0.19197697    -0.79200
C900        C  0.04302824  0.63892316  0.22374174     0.96700
C901        C  0.42356058  0.57164781  0.25155832     0.91600
O902        O  0.41742258  0.59771984  0.25053800    -0.84500
O903        O  0.22412837  0.65392864  0.14148531    -0.84000
C904        C  0.12449615  0.69458707  0.10957337     0.95400
O905        O  0.12160391  0.67105004  0.12946110    -0.73100
O906        O  0.15395566  0.65765282  0.07677750    -0.76700
Al907      Al  0.15393020  0.65360022  0.12506616     1.49000
C908        C  0.18211458  0.66440080  0.05992079     0.90700
O909        O  0.25013929  0.73566223  0.08292568    -0.82900
O910        O  0.23599457  0.74976000  0.16721696    -0.76400
Al911      Al  0.23458288  0.69475936  0.11212928     1.90100
O912        O  0.22371971  0.76441967  0.10286524    -0.75500
O913        O  0.16665980  0.70938383  0.17608907    -0.75400
O914        O  0.15428458  0.72379832  0.10861691    -0.81000
O915        O  0.15799640  0.65362592  0.17335529    -0.79200
O916        O  0.19557292  0.69523172  0.12506014    -1.15400
O917        O  0.17136543  0.62126894  0.12066656    -0.74600
C918        C  0.19491432  0.62414606  0.14052768     0.96200
C919        C  0.24398395  0.76172017  0.08184283     0.92600
Al920      Al  0.19510155  0.73423358  0.13799577     1.55600
O921        O  0.20974610  0.66635787  0.07402393    -0.79200
C922        C  0.16476896  0.68178917  0.19019873     0.96700
C923        C  0.26204936  0.74359231  0.16830711     0.91600
O924        O  0.26475564  0.72334169  0.14727894    -0.84500
O925        O  0.04322726  0.70947689  0.42603583    -0.84000
C926        C  0.48314056  0.66451663  0.30985244     0.95400
O927        O  0.50454165  0.65780908  0.32668412    -0.73100
O928        O  0.05012703  0.67120836  0.37945180    -0.76700
Al929      Al  0.50034283  0.65366402  0.37496744     1.49000
C930        C  0.07083115  0.69474821  0.35956535     0.90700
O931        O  0.04141793  0.76444197  0.35275081    -0.82900
O932        O  0.45907780  0.72319736  0.39726491    -0.76400
Al933      Al  0.03976128  0.73429158  0.38791665     1.90100
O934        O  0.48618905  0.73562802  0.33291163    -0.75500
O935        O  0.43036346  0.65377254  0.39142159    -0.75400
O936        O  0.45736660  0.66634028  0.32396688    -0.81000
O937        O  0.45055981  0.62125548  0.37049218    -0.79200
O938        O  0.50029517  0.69524390  0.37499948    -1.15400
O939        O  0.99616765  0.65360652  0.42324999    -0.74600
C940        C  0.01756723  0.68174820  0.44012489     0.96200
C941        C  0.01843443  0.76172751  0.33178969     0.92600
Al942      Al  0.46078905  0.69466979  0.36208928     1.55600
O943        O  0.07025691  0.72392706  0.35858370    -0.79200
C944        C  0.42985492  0.62404415  0.39042237     0.96700
C945        C  0.48206016  0.74355614  0.41822105     0.91600
O946        O  0.01431233  0.74977975  0.41709181    -0.84500
O947        O  0.12404113  0.49969776  0.15736706    -0.84000
C948        C  0.18423000  0.51510482  0.27354953     0.95400
O949        O  0.16281452  0.48696806  0.25667462    -0.73100
O950        O  0.11718574  0.95462143  0.20390386    -0.76700
Al951      Al  0.16699044  0.48700728  0.20839328     1.49000
C952        C  0.09648693  0.95742763  0.22382630     0.90700
O953        O  0.12577113  0.55658214  0.23064067    -0.82900
O954        O  0.20811635  0.59777805  0.18610880    -0.76400
Al955      Al  0.12746914  0.52804059  0.19548298     1.90100
O956        O  0.18101248  0.58317562  0.25045311    -0.75500
O957        O  0.23693120  0.55722318  0.19199442    -0.75400
O958        O  0.20988241  0.54283777  0.25945758    -0.81000
O959        O  0.21676988  0.50451294  0.21288744    -0.79200
O960        O  0.16696701  0.52859882  0.20840353    -1.15400
O961        O  0.17117211  0.99112101  0.16010788    -0.74600
C962        C  0.14978146  0.99783182  0.14326040     0.96200
C963        C  0.14876164  0.57696041  0.25157762     0.92600
Al964      Al  0.20644446  0.56763848  0.22130501     1.55600
O965        O  0.09702944  0.48716492  0.22482207    -0.79200
C966        C  0.23748702  0.52803341  0.19299294     0.96700
C967        C  0.18511769  0.59507624  0.16516763     0.91600
O968        O  0.15287149  0.56898548  0.16630457    -0.84500
O969        O  0.10978594  0.59684841  0.27521078    -0.84000
C970        C  0.20965333  0.73723050  0.30723092     0.95400
O971        O  0.21246671  0.71653569  0.28731079    -0.73100
O972        O  0.18001016  0.67080767  0.33997530    -0.76700
Al973      Al  0.18003271  0.66674389  0.29169258     1.49000
C974        C  0.15185339  0.64937764  0.35683431     0.90700
O975        O  0.08384406  0.65270140  0.33373573    -0.82900
O976        O  0.09814067  0.68097811  0.24959552    -0.76400
Al977      Al  0.09937986  0.62730513  0.30456030     1.90100
O978        O  0.11048180  0.70796272  0.31397209    -0.75500
O979        O  0.16745893  0.70982579  0.24071185    -0.75400
O980        O  0.17991053  0.73670332  0.30821573    -0.81000
O981        O  0.17595992  0.66264362  0.24340232    -0.79200
O982        O  0.13845567  0.66679306  0.29170416    -1.15400
O983        O  0.16249297  0.61695437  0.29609809    -0.74600
C984        C  0.13896283  0.59626043  0.27620784     0.96200
C985        C  0.09009471  0.68495460  0.33489913     0.92600
Al986      Al  0.13905736  0.70632260  0.27882238     1.55600
O987        O  0.12411671  0.62376561  0.34271872    -0.79200
C988        C  0.16926578  0.68405790  0.22658010     0.96700
C989        C  0.07205540  0.64873353  0.24842248     0.91600
O990        O  0.06930824  0.62572031  0.26936475    -0.84500
O991        O  0.05747453  0.82057463  0.30810887    -0.84000
C992        C  0.45780689  0.86119264  0.27630161     0.95400
O993        O  0.45493881  0.83766056  0.29617943    -0.73100
O994        O  0.98729016  0.82432468  0.24343968    -0.76700
Al995      Al  0.98727779  0.82024118  0.29172783     1.49000
C996        C  0.01544329  0.83107900  0.22656869     0.90700
O997        O  0.08347052  0.90234838  0.24960003    -0.82900
O998        O  0.06935178  0.91641642  0.33387806    -0.76400
Al999      Al  0.06792525  0.86142603  0.27877764     1.90100
O1000       O  0.05700931  0.93106562  0.26954023    -0.75500
O1001       O  0.00002591  0.87600372  0.34279054    -0.75400
O1002       O  0.98758372  0.89041503  0.27534112    -0.81000
O1003       O  0.49135613  0.82024117  0.34001643    -0.79200
O1004       O  0.02891271  0.86188067  0.29172801    -1.15400
O1005       O  0.00472196  0.78792837  0.28727258    -0.74600
C1006       C  0.02825588  0.79079483  0.30714271     0.96200
C1007       C  0.07728469  0.92838677  0.24851650     0.92600
Al1008     Al  0.02842977  0.90086899  0.30468536     1.55600
O1009       O  0.04308989  0.83305273  0.24065699    -0.79200
C1010       C  0.49811049  0.84838666  0.35688020     0.96700
C1011       C  0.09540564  0.91024541  0.33496202     0.91600
O1012       O  0.09809981  0.88998709  0.31393580    -0.84500
O1013       O  0.26389397  0.94274330  0.30825913    -0.84000
C1014       C  0.40432384  0.54256925  0.27622461     0.95400
O1015       O  0.38362970  0.54537114  0.29616089    -0.73100
O1016       O  0.33790048  0.01295408  0.24348381    -0.76700
Al1017     Al  0.33381867  0.01296007  0.29176752     1.49000
C1018       C  0.31646691  0.98480486  0.22663408     0.90700
O1019       O  0.31972576  0.91677080  0.24972489    -0.82900
O1020       O  0.34802496  0.93103298  0.33381547    -0.76400
Al1021     Al  0.29434410  0.93232619  0.27890701     1.90100
O1022       O  0.37501294  0.94341597  0.26943062    -0.75500
O1023       O  0.37687527  0.00032505  0.34273445    -0.75400
O1024       O  0.40377768  0.01283024  0.27521833    -0.81000
O1025       O  0.32971582  0.50886563  0.34005797    -0.79200
O1026       O  0.33384852  0.97138097  0.29174983    -1.15400
O1027       O  0.28402500  0.99544898  0.28736452    -0.74600
C1028       C  0.26331362  0.97191846  0.30725498     0.96200
C1029       C  0.35198375  0.92301824  0.24853225     0.92600
Al1030     Al  0.37337896  0.97196302  0.30460305     1.55600
O1031       O  0.29082949  0.95708299  0.24075558    -0.79200
C1032       C  0.35113046  0.50216272  0.35687427     0.96700
C1033       C  0.31576769  0.90496630  0.33501418     0.91600
O1034       O  0.29273982  0.90224520  0.31410390    -0.84500
O1035       O  0.43041780  0.77599657  0.14152214    -0.84000
C1036       C  0.07085265  0.87584174  0.10956032     0.95400
O1037       O  0.05013941  0.87863834  0.12947474    -0.73100
O1038       O  0.50445958  0.84624801  0.07677738    -0.76700
Al1039     Al  0.00034632  0.84623050  0.12506049     1.49000
C1040       C  0.48304287  0.81810020  0.05991862     0.90700
O1041       O  0.48628920  0.75008091  0.08292921    -0.82900
O1042       O  0.01452675  0.76428600  0.16705689    -0.76400
Al1043     Al  0.46087777  0.76560125  0.11214266     1.90100
O1044       O  0.04155336  0.77670482  0.10268861    -0.75500
O1045       O  0.04336920  0.83354885  0.17603692    -0.75400
O1046       O  0.07030840  0.84610020  0.10854164    -0.81000
O1047       O  0.99622181  0.84212990  0.17334763    -0.79200
O1048       O  0.00037415  0.80464933  0.12502293    -1.15400
O1049       O  0.45055173  0.82870921  0.12064443    -0.74600
C1050       C  0.42985346  0.80518274  0.14054597     0.96200
C1051       C  0.01855348  0.75633450  0.08175604     0.92600
Al1052     Al  0.03989392  0.80522089  0.13788278     1.55600
O1053       O  0.45737019  0.79039613  0.07402447    -0.79200
C1054       C  0.01764334  0.83544450  0.19017296     0.96700
C1055       C  0.48227670  0.73821315  0.16823517     0.91600
O1056       O  0.45925856  0.73548114  0.14730784    -0.84500
O1057       O  0.33332363  0.79026883  0.25946789    -0.84000
C1058       C  0.34877951  0.85050739  0.14331019     0.95400
O1059       O  0.32062614  0.82910320  0.16018507    -0.73100
O1060       O  0.28826571  0.78347133  0.21293203    -0.76700
Al1061     Al  0.32066621  0.83325426  0.20846952     1.49000
C1062       C  0.29108345  0.76278504  0.19300616     0.90700
O1063       O  0.39025786  0.79203409  0.18620085    -0.82900
O1064       O  0.43147463  0.87433166  0.23065741    -0.76400
Al1065     Al  0.36169632  0.79372380  0.22136009     1.90100
O1066       O  0.41679983  0.84724032  0.16631513    -0.75500
O1067       O  0.39094380  0.90316104  0.22483857    -0.75400
O1068       O  0.37649762  0.87616530  0.15739872    -0.81000
O1069       O  0.33820615  0.88303492  0.20400136    -0.79200
O1070       O  0.36226065  0.83321834  0.20843467    -1.15400
O1071       O  0.32479572  0.83743415  0.25675214    -0.74600
C1072       C  0.33151986  0.81604500  0.27358138     0.96200
C1073       C  0.41059207  0.81499834  0.16521369     0.92600
Al1074     Al  0.40131401  0.87268139  0.19550239     1.55600
O1075       O  0.32082326  0.76330612  0.19201941    -0.79200
C1076       C  0.36176041  0.90373840  0.22387044     0.96700
C1077       C  0.42874493  0.85136190  0.25164673     0.91600
O1078       O  0.40263698  0.81912676  0.25054724    -0.84500
O1079       O  0.33414857  0.79072465  0.32404397    -0.84000
C1080       C  0.31879348  0.83563876  0.44023751     0.95400
O1081       O  0.34695078  0.84240058  0.42337232    -0.73100
O1082       O  0.37922587  0.82901145  0.37061824    -0.76700
Al1083     Al  0.34693737  0.84648556  0.37508569     1.49000
C1084       C  0.37631796  0.80547045  0.39050469     0.90700
O1085       O  0.27709281  0.73562305  0.39724136    -0.82900
O1086       O  0.23604343  0.77672342  0.35294441    -0.76400
Al1087     Al  0.30571487  0.76584751  0.36212028     1.90100
O1088       O  0.25073903  0.76440448  0.41727496    -0.75500
O1089       O  0.27673767  0.84616014  0.35874324    -0.75400
O1090       O  0.29117391  0.83372560  0.42615347    -0.81000
O1091       O  0.32951323  0.87881347  0.37954890    -0.79200
O1092       O  0.30527526  0.80485013  0.37509708    -1.15400
O1093       O  0.34283635  0.84649203  0.32680270    -0.74600
C1094       C  0.33603847  0.81832690  0.30995203     0.96200
C1095       C  0.25684725  0.73831189  0.41829522     0.92600
Al1096     Al  0.26628288  0.80532161  0.38807706     1.55600
O1097       O  0.34653093  0.77626002  0.39146050    -0.79200
C1098       C  0.30596402  0.87593466  0.35968888     0.96700
C1099       C  0.23872836  0.75647517  0.33189323     0.91600
O1100       O  0.26481013  0.75034635  0.33292554    -0.84500
O1101       O  0.39091589  0.48725697  0.47483092    -0.84000
C1102       C  0.29119575  0.52780930  0.44293174     0.95400
O1103       O  0.28832633  0.50427023  0.46280197    -0.73100
O1104       O  0.32070375  0.99094195  0.41011132    -0.76700
Al1105     Al  0.32068441  0.48686363  0.45840176     1.49000
C1106       C  0.34887280  0.99771714  0.39325781     0.90700
O1107       O  0.41684701  0.56895504  0.41620499    -0.82900
O1108       O  0.40271489  0.58306290  0.00049938    -0.76400
Al1109     Al  0.40133379  0.52806495  0.44543986     1.90100
O1110       O  0.39039551  0.59767935  0.43615129    -0.75500
O1111       O  0.33340733  0.54265633  0.00942743    -0.75400
O1112       O  0.32097507  0.55702720  0.44196212    -0.81000
O1113       O  0.32474139  0.48689374  0.00669195    -0.79200
O1114       O  0.36231060  0.52851051  0.45838444    -1.15400
O1115       O  0.33815319  0.95458461  0.45400477    -0.74600
C1116       C  0.36169351  0.95748244  0.47388726     0.96200
C1117       C  0.41066167  0.59499582  0.41511870     0.92600
Al1118     Al  0.36181209  0.56749873  0.47130863     1.55600
O1119       O  0.37649334  0.49962439  0.40735916    -0.79200
C1120       C  0.33147493  0.51504185  0.02354003     0.96700
C1121       C  0.42878588  0.57692338  0.00158297     0.91600
O1122       O  0.43151111  0.55668185  0.48056020    -0.84500
O1123       O  0.27643970  0.93007738  0.10864621    -0.84000
C1124       C  0.37629596  0.57050402  0.14051934     0.95400
O1125       O  0.37909251  0.54979731  0.12060568    -0.73100
O1126       O  0.34668233  0.00412699  0.17333812    -0.76700
Al1127     Al  0.34668151  0.50001409  0.12505828     1.49000
C1128       C  0.31853960  0.98270730  0.19022032     0.90700
O1129       O  0.25046427  0.98594321  0.16716687    -0.82900
O1130       O  0.26470668  0.51416460  0.08305015    -0.76400
Al1131     Al  0.26601880  0.96053991  0.13798995     1.90100
O1132       O  0.27713554  0.54120949  0.14740050    -0.75500
O1133       O  0.33399089  0.54300623  0.07405186    -0.75400
O1134       O  0.34654882  0.56996272  0.14153688    -0.81000
O1135       O  0.34257048  0.49586821  0.07677153    -0.79200
O1136       O  0.30508946  0.50003445  0.12509660    -1.15400
O1137       O  0.32916012  0.95023342  0.12951156    -0.74600
C1138       C  0.30563557  0.92952231  0.10962707     0.96200
C1139       C  0.25674380  0.51821011  0.16833193     0.92600
Al1140     Al  0.30565718  0.53954170  0.11220977     1.55600
O1141       O  0.29080471  0.95706229  0.17613430    -0.79200
C1142       C  0.33587255  0.51727282  0.05993270     0.96700
C1143       C  0.23863012  0.98191280  0.08187360     0.91600
O1144       O  0.23590921  0.95889949  0.10280346    -0.84500
O1145       O  0.44307189  0.76340641  0.44191596    -0.84000
C1146       C  0.04296048  0.90380092  0.47388357     0.95400
O1147       O  0.04576610  0.88309613  0.45397081    -0.73100
O1148       O  0.51333884  0.83739431  0.00665454    -0.76700
Al1149     Al  0.51333689  0.83330578  0.45837139     1.49000
C1150       C  0.48517664  0.81598084  0.02351469     0.90700
O1151       O  0.41718232  0.81927443  0.00051559    -0.82900
O1152       O  0.43141530  0.84751715  0.41635116    -0.76400
Al1153     Al  0.43268898  0.79386344  0.47129881     1.90100
O1154       O  0.44379916  0.87452221  0.48072185    -0.75500
O1155       O  0.50070706  0.87636144  0.40740308    -0.75400
O1156       O  0.51321453  0.90326219  0.47489256    -0.81000
O1157       O  0.00924560  0.82919935  0.41008430    -0.79200
O1158       O  0.47175542  0.83334888  0.45841148    -1.15400
O1159       O  0.49579148  0.78351238  0.46277689    -0.74600
C1160       C  0.47225396  0.76282569  0.44288418     0.96200
C1161       C  0.42343561  0.85153200  0.00167323     0.92600
Al1162     Al  0.47234294  0.87287055  0.44554050     1.55600
O1163       O  0.45746980  0.79032517  0.00940984    -0.79200
C1164       C  0.00255194  0.85061725  0.39326583     0.96700
C1165       C  0.40532940  0.81527578  0.41519177     0.91600
O1166       O  0.40257854  0.79226944  0.43614234    -0.84500
O1167       O  0.29077911  0.83305281  0.49072255    -0.84000
C1168       C  0.35090794  0.84840445  0.10690511     0.95400
O1169       O  0.32950399  0.82026804  0.09002620    -0.73100
O1170       O  0.28391673  0.78795511  0.03724877    -0.76700
Al1171     Al  0.33370186  0.82032643  0.04174446     1.49000
C1172       C  0.26321177  0.79076431  0.05716293     0.90700
O1173       O  0.29249610  0.88991162  0.06400968    -0.82900
O1174       O  0.37485934  0.93113280  0.01951968    -0.76400
Al1175     Al  0.29420497  0.86138502  0.02884183     1.90100
O1176       O  0.34771643  0.91646875  0.08386796    -0.75500
O1177       O  0.40365276  0.89055372  0.02537465    -0.75400
O1178       O  0.37658976  0.87612136  0.09282262    -0.81000
O1179       O  0.38348174  0.83783116  0.04624625    -0.79200
O1180       O  0.33368968  0.86192555  0.04176956    -1.15400
O1181       O  0.33792086  0.82446902  0.49346122    -0.74600
C1182       C  0.31653826  0.83119423  0.47661809     0.96200
C1183       C  0.31546475  0.91025612  0.08497879     0.92600
Al1184     Al  0.37316419  0.90095618  0.05469767     1.55600
O1185       O  0.26374849  0.82050399  0.05816137    -0.79200
C1186       C  0.40419837  0.86135674  0.02635514     0.96700
C1187       C  0.35188014  0.92842777  0.49855358     0.91600
O1188       O  0.31963312  0.90233619  0.99967511    -0.84500
O1189       O  0.16747665  0.95735162  0.99070036    -0.84000
C1190       C  0.15204011  0.00226052  0.60687844     0.95400
O1191       O  0.18022248  0.50903060  0.59002829    -0.73100
O1192       O  0.21252168  0.99564721  0.53730210    -0.76700
Al1193     Al  0.18021597  0.01310463  0.54173940     1.49000
C1194       C  0.20961522  0.97210446  0.55718626     0.90700
O1195       O  0.11038690  0.90223936  0.56388210    -0.82900
O1196       O  0.06934577  0.94331286  0.51956854    -0.76400
Al1197     Al  0.13902606  0.93246768  0.52877020     1.90100
O1198       O  0.08402121  0.93101818  0.58389690    -0.75500
O1199       O  0.11000434  0.01274709  0.52535636    -0.75400
O1200       O  0.12442131  0.00033338  0.59278003    -0.81000
O1201       O  0.16279108  0.54542530  0.54617454    -0.79200
O1202       O  0.13856441  0.97146300  0.54173762    -1.15400
O1203       O  0.17614553  0.01311227  0.99345643    -0.74600
C1204       C  0.16937200  0.98495513  0.97660528     0.96200
C1205       C  0.09013208  0.90492872  0.58492464     0.92600
Al1206     Al  0.09955879  0.97192127  0.55469820     1.55600
O1207       O  0.17983224  0.94288864  0.55813195    -0.79200
C1208       C  0.13923869  0.54253567  0.52631213     0.96700
C1209       C  0.07204349  0.92306699  0.99852504     0.91600
O1210       O  0.09813497  0.91695444  0.49955858    -0.84500
O1211       O  0.16670809  0.95692450  0.92611489    -0.84000
C1212       C  0.18214348  0.51718052  0.80996300     0.95400
O1213       O  0.15400075  0.49576072  0.82684433    -0.73100
O1214       O  0.12163477  0.95012191  0.87958725    -0.76700
Al1215     Al  0.15403988  0.49989649  0.87512710     1.49000
C1216       C  0.12444942  0.92944127  0.85965356     0.90700
O1217       O  0.22363128  0.95871896  0.85283309    -0.82900
O1218       O  0.26483581  0.54099861  0.89734377    -0.76400
Al1219     Al  0.19507115  0.96038836  0.88799425     1.90100
O1220       O  0.25021665  0.51394131  0.83300164    -0.75500
O1221       O  0.22428714  0.56981776  0.89150950    -0.75400
O1222       O  0.20987780  0.54282261  0.82404995    -0.81000
O1223       O  0.17155496  0.54967073  0.87066018    -0.79200
O1224       O  0.19563978  0.49987464  0.87508968    -1.15400
O1225       O  0.15815950  0.00407903  0.92340374    -0.74600
C1226       C  0.16488295  0.98268826  0.94023149     0.96200
C1227       C  0.24400338  0.98170857  0.83188242     0.92600
Al1228     Al  0.23468778  0.53935196  0.86217556     1.55600
O1229       O  0.15419304  0.92997012  0.85865465    -0.79200
C1230       C  0.19509553  0.57038025  0.89053367     0.96700
C1231       C  0.26212427  0.51800553  0.91829756     0.91600
O1232       O  0.23601789  0.98578003  0.91717067    -0.84500
O1233       O  0.00002379  0.62366597  0.59271964    -0.84000
C1234       C  0.01545595  0.68384721  0.97653197     0.95400
O1235       O  0.98730977  0.66243624  0.99341123    -0.73100
O1236       O  0.45497392  0.61682692  0.54617878    -0.76700
Al1237     Al  0.98734317  0.66660795  0.54169284     1.49000
C1238       C  0.45781038  0.59614012  0.52627041     0.90700
O1239       O  0.05697641  0.62542583  0.51948669    -0.82900
O1240       O  0.09816181  0.70774285  0.56392229    -0.76400
Al1241     Al  0.02840797  0.62711815  0.55462569     1.90100
O1242       O  0.08351010  0.68062177  0.49957588    -0.75500
O1243       O  0.05757938  0.73654161  0.55806150    -0.75400
O1244       O  0.04317598  0.70951101  0.99061620    -0.81000
O1245       O  0.00485101  0.71638231  0.53719749    -0.79200
O1246       O  0.02895112  0.66659644  0.54167627    -1.15400
O1247       O  0.49146295  0.67080996  0.58997524    -0.74600
C1248       C  0.49819550  0.64943493  0.60681883     0.96200
C1249       C  0.07731011  0.64838013  0.99849463     0.92600
Al1250     Al  0.06799363  0.70606430  0.52874337     1.55600
O1251       O  0.98755736  0.59667955  0.52528925    -0.79200
C1252       C  0.02837923  0.73709237  0.55708160     0.96700
C1253       C  0.09544001  0.68477334  0.58491083     0.91600
O1254       O  0.06933549  0.65253731  0.58381062    -0.84500
O1255       O  0.23705123  0.67948208  0.94191872    -0.84000
C1256       C  0.09657625  0.63854264  0.97385327     0.95400
O1257       O  0.11728160  0.66204830  0.95394424    -0.73100
O1258       O  0.16292027  0.67546513  0.50668974    -0.76700
Al1259     Al  0.16706698  0.67956514  0.95840187     1.49000
C1260       C  0.18433920  0.66878478  0.52352798     0.90700
O1261       O  0.18128684  0.59763311  0.50044094    -0.82900
O1262       O  0.15302513  0.58337215  0.91638392    -0.76400
Al1263     Al  0.20664071  0.63858803  0.97126221     1.90100
O1264       O  0.12599310  0.56886018  0.98075006    -0.75500
O1265       O  0.12413710  0.62368711  0.90735620    -0.75400
O1266       O  0.09714292  0.60935965  0.97486585    -0.81000
O1267       O  0.17119007  0.67957179  0.91012158    -0.79200
O1268       O  0.16711128  0.63799369  0.95839022    -1.15400
O1269       O  0.21685077  0.71199450  0.96284131    -0.74600
C1270       C  0.23757686  0.70921628  0.94293194     0.96200
C1271       C  0.14902914  0.57157048  0.50164549     0.92600
Al1272     Al  0.12761800  0.59893501  0.94553551     1.55600
O1273       O  0.21008392  0.66690968  0.50940831    -0.79200
C1274       C  0.14976934  0.65143074  0.89325322     0.96700
C1275       C  0.18529617  0.58965219  0.91518822     0.91600
O1276       O  0.20832060  0.61007918  0.93607511    -0.84500
O1277       O  0.45776888  0.66704777  0.75939168    -0.84000
C1278       C  0.50269538  0.65171899  0.64319137     0.95400
O1279       O  0.00945342  0.67987142  0.66004223    -0.73100
O1280       O  0.49604177  0.71212118  0.71279067    -0.76700
Al1281     Al  0.51354950  0.67986564  0.70832803     1.49000
C1282       C  0.47248571  0.70920179  0.69291909     0.90700
O1283       O  0.40267253  0.60998187  0.68622169    -0.82900
O1284       O  0.44380733  0.56897356  0.73049117    -0.76400
Al1285     Al  0.43289635  0.63861035  0.72132885     1.90100
O1286       O  0.43149833  0.58368286  0.66616438    -0.75500
O1287       O  0.51325517  0.60969355  0.72469312    -0.75400
O1288       O  0.50083343  0.62412999  0.65728475    -0.81000
O1289       O  0.04590477  0.66246513  0.70387037    -0.79200
O1290       O  0.47191931  0.63819810  0.70833998    -1.15400
O1291       O  0.51356578  0.67578060  0.75661122    -0.74600
C1292       C  0.48539713  0.66898269  0.77347502     0.96200
C1293       C  0.40538613  0.58976648  0.66515595     0.92600
Al1294     Al  0.47241472  0.59922706  0.69536035     1.55600
O1295       O  0.44327992  0.67941088  0.69197694    -0.79200
C1296       C  0.04302842  0.63892339  0.72374165     0.96700
C1297       C  0.42356069  0.57164769  0.75155824     0.91600
O1298       O  0.41742259  0.59771994  0.75053804    -0.84500
O1299       O  0.22412834  0.65392864  0.64148531    -0.84000
C1300       C  0.12449593  0.69458680  0.60957351     0.95400
O1301       O  0.12160387  0.67105007  0.62946109    -0.73100
O1302       O  0.15395574  0.65765281  0.57677747    -0.76700
Al1303     Al  0.15393019  0.65360020  0.62506618     1.49000
C1304       C  0.18211398  0.66440063  0.55992083     0.90700
O1305       O  0.25013933  0.73566222  0.58292562    -0.82900
O1306       O  0.23599442  0.74976010  0.66721687    -0.76400
Al1307     Al  0.23458288  0.69475937  0.61212929     1.90100
O1308       O  0.22371974  0.76441967  0.60286506    -0.75500
O1309       O  0.16665985  0.70938421  0.67608893    -0.75400
O1310       O  0.15428460  0.72379836  0.60861691    -0.81000
O1311       O  0.15799640  0.65362630  0.67335542    -0.79200
O1312       O  0.19557298  0.69523178  0.62506016    -1.15400
O1313       O  0.17136539  0.62126886  0.62066656    -0.74600
C1314       C  0.19491440  0.62414609  0.64052768     0.96200
C1315       C  0.24398360  0.76172025  0.58184313     0.92600
Al1316     Al  0.19510150  0.73423353  0.63799579     1.55600
O1317       O  0.20974618  0.66635786  0.57402396    -0.79200
C1318       C  0.16476884  0.68178788  0.69019874     0.96700
C1319       C  0.26204970  0.74359208  0.66830694     0.91600
O1320       O  0.26475555  0.72334170  0.64727907    -0.84500
O1321       O  0.04322710  0.70947673  0.92603592    -0.84000
C1322       C  0.48314076  0.66451671  0.80985242     0.95400
O1323       O  0.50454165  0.65780915  0.82668407    -0.73100
O1324       O  0.05012701  0.67120831  0.87945178    -0.76700
Al1325     Al  0.50034282  0.65366400  0.87496736     1.49000
C1326       C  0.07083130  0.69474858  0.85956518     0.90700
O1327       O  0.04141802  0.76444203  0.85275086    -0.82900
O1328       O  0.45907798  0.72319753  0.89726508    -0.76400
Al1329     Al  0.03976129  0.73429158  0.88791668     1.90100
O1330       O  0.48618918  0.73562817  0.83291173    -0.75500
O1331       O  0.43036346  0.65377266  0.89142153    -0.75400
O1332       O  0.45736663  0.66634039  0.82396687    -0.81000
O1333       O  0.45055970  0.62125547  0.87049215    -0.79200
O1334       O  0.50029513  0.69524389  0.87499949    -1.15400
O1335       O  0.99616753  0.65360637  0.92324989    -0.74600
C1336       C  0.01756770  0.68174876  0.94012486     0.96200
C1337       C  0.01843416  0.76172734  0.83178969     0.92600
Al1338     Al  0.46078900  0.69466977  0.86208927     1.55600
O1339       O  0.07025694  0.72392701  0.85858372    -0.79200
C1340       C  0.42985498  0.62404394  0.89042226     0.96700
C1341       C  0.48205936  0.74355581  0.91822073     0.91600
O1342       O  0.01431229  0.74977973  0.91709183    -0.84500
O1343       O  0.12404105  0.49969776  0.65736710    -0.84000
C1344       C  0.18422890  0.51510366  0.77354952     0.95400
O1345       O  0.16281475  0.48696843  0.75667471    -0.73100
O1346       O  0.11718564  0.95462144  0.70390389    -0.76700
Al1347     Al  0.16699038  0.48700722  0.70839331     1.49000
C1348       C  0.09648698  0.95742730  0.72382611     0.90700
O1349       O  0.12577120  0.55658221  0.73064064    -0.82900
O1350       O  0.20811636  0.59777810  0.68610879    -0.76400
Al1351     Al  0.12746914  0.52804059  0.69548294     1.90100
O1352       O  0.18101257  0.58317575  0.75045315    -0.75500
O1353       O  0.23693125  0.55722344  0.69199439    -0.75400
O1354       O  0.20988275  0.54283814  0.75945746    -0.81000
O1355       O  0.21677003  0.50451316  0.71288731    -0.79200
O1356       O  0.16696702  0.52859893  0.70840357    -1.15400
O1357       O  0.17117196  0.99112096  0.66010779    -0.74600
C1358       C  0.14978200  0.99783176  0.64326038     0.96200
C1359       C  0.14876151  0.57696035  0.75157756     0.92600
Al1360     Al  0.20644446  0.56763846  0.72130505     1.55600
O1361       O  0.09702938  0.48716509  0.72482215    -0.79200
C1362       C  0.23748664  0.52803263  0.69299327     0.96700
C1363       C  0.18511763  0.59507625  0.66516761     0.91600
O1364       O  0.15287149  0.56898559  0.66630459    -0.84500
O1365       O  0.10978590  0.59684846  0.77521080    -0.84000
C1366       C  0.20965302  0.73723087  0.80723118     0.95400
O1367       O  0.21246674  0.71653556  0.78731073    -0.73100
O1368       O  0.18001011  0.67080764  0.83997541    -0.76700
Al1369     Al  0.18003271  0.66674396  0.79169257     1.49000
C1370       C  0.15185352  0.64937776  0.85683430     0.90700
O1371       O  0.08384401  0.65270147  0.83373574    -0.82900
O1372       O  0.09814071  0.68097821  0.74959560    -0.76400
Al1373     Al  0.09937986  0.62730510  0.80456032     1.90100
O1374       O  0.11048193  0.70796279  0.81397210    -0.75500
O1375       O  0.16745897  0.70982554  0.74071175    -0.75400
O1376       O  0.17991071  0.73670335  0.80821571    -0.81000
O1377       O  0.17595999  0.66264338  0.74340242    -0.79200
O1378       O  0.13845565  0.66679302  0.79170414    -1.15400
O1379       O  0.16249301  0.61695434  0.79609799    -0.74600
C1380       C  0.13896296  0.59626047  0.77620791     0.96200
C1381       C  0.09009456  0.68495423  0.83489926     0.92600
Al1382     Al  0.13905735  0.70632263  0.77882247     1.55600
O1383       O  0.12411676  0.62376554  0.84271869    -0.79200
C1384       C  0.16926570  0.68405921  0.72658006     0.96700
C1385       C  0.07205539  0.64873336  0.74842255     0.91600
O1386       O  0.06930827  0.62572037  0.76936470    -0.84500
O1387       O  0.05747445  0.82057452  0.80810888    -0.84000
C1388       C  0.45780648  0.86119178  0.77630197     0.95400
O1389       O  0.45493893  0.83766068  0.79617930    -0.73100
O1390       O  0.98729003  0.82432465  0.74343974    -0.76700
Al1391     Al  0.98727781  0.82024122  0.79172785     1.49000
C1392       C  0.01544359  0.83107889  0.72656869     0.90700
O1393       O  0.08347055  0.90234821  0.74960002    -0.82900
O1394       O  0.06935183  0.91641638  0.83387801    -0.76400
Al1395     Al  0.06792526  0.86142603  0.77877766     1.90100
O1396       O  0.05700937  0.93106552  0.76954021    -0.75500
O1397       O  0.00002598  0.87600354  0.84279052    -0.75400
O1398       O  0.98758383  0.89041510  0.77534110    -0.81000
O1399       O  0.49135612  0.82024080  0.84001627    -0.79200
O1400       O  0.02891270  0.86188069  0.79172801    -1.15400
O1401       O  0.00472193  0.78792840  0.78727256    -0.74600
C1402       C  0.02825610  0.79079503  0.80714281     0.96200
C1403       C  0.07728451  0.92838702  0.74851663     0.92600
Al1404     Al  0.02842979  0.90086901  0.80468532     1.55600
O1405       O  0.04308980  0.83305276  0.74065695    -0.79200
C1406       C  0.49811061  0.84838808  0.85688020     0.96700
C1407       C  0.09540562  0.91024553  0.83496210     0.91600
O1408       O  0.09809981  0.88998699  0.81393581    -0.84500
O1409       O  0.26389413  0.94274361  0.80825907    -0.84000
C1410       C  0.40432367  0.54256936  0.77622472     0.95400
O1411       O  0.38362968  0.54537111  0.79616082    -0.73100
O1412       O  0.33790054  0.01295412  0.74348380    -0.76700
Al1413     Al  0.33381873  0.01296008  0.79176749     1.49000
C1414       C  0.31646681  0.98480474  0.72663407     0.90700
O1415       O  0.31972592  0.91677088  0.74972481    -0.82900
O1416       O  0.34802497  0.93103300  0.83381554    -0.76400
Al1417     Al  0.29434415  0.93232622  0.77890694     1.90100
O1418       O  0.37501300  0.94341601  0.76943077    -0.75500
O1419       O  0.37687514  0.00032509  0.84273451    -0.75400
O1420       O  0.40377767  0.01283022  0.77521835    -0.81000
O1421       O  0.32971590  0.50886556  0.84005796    -0.79200
O1422       O  0.33384852  0.97138097  0.79174984    -1.15400
O1423       O  0.28402515  0.99544923  0.78736442    -0.74600
C1424       C  0.26331339  0.97191769  0.80725534     0.96200
C1425       C  0.35198349  0.92301813  0.74853212     0.92600
Al1426     Al  0.37337897  0.97196300  0.80460307     1.55600
O1427       O  0.29082951  0.95708311  0.74075557    -0.79200
C1428       C  0.35112997  0.50216279  0.85687422     0.96700
C1429       C  0.31576754  0.90496630  0.83501410     0.91600
O1430       O  0.29273989  0.90224525  0.81410389    -0.84500
O1431       O  0.43041781  0.77599650  0.64152203    -0.84000
C1432       C  0.07085227  0.87584216  0.60956068     0.95400
O1433       O  0.05013945  0.87863827  0.62947457    -0.73100
O1434       O  0.50445959  0.84624797  0.57677737    -0.76700
Al1435     Al  0.00034623  0.84623045  0.62506050     1.49000
C1436       C  0.48304287  0.81810017  0.55991862     0.90700
O1437       O  0.48628919  0.75008088  0.58292916    -0.82900
O1438       O  0.01452644  0.76428581  0.66705687    -0.76400
Al1439     Al  0.46087777  0.76560119  0.61214260     1.90100
O1440       O  0.04155325  0.77670471  0.60268858    -0.75500
O1441       O  0.04336930  0.83354890  0.67603684    -0.75400
O1442       O  0.07030836  0.84610001  0.60854158    -0.81000
O1443       O  0.99622185  0.84212987  0.67334770    -0.79200
O1444       O  0.00037402  0.80464925  0.62502291    -1.15400
O1445       O  0.45055184  0.82870923  0.62064433    -0.74600
C1446       C  0.42985327  0.80518240  0.64054620     0.96200
C1447       C  0.01855366  0.75633467  0.58175602     0.92600
Al1448     Al  0.03989393  0.80522094  0.63788281     1.55600
O1449       O  0.45737016  0.79039612  0.57402442    -0.79200
C1450       C  0.01764292  0.83544442  0.69017295     0.96700
C1451       C  0.48227624  0.73821292  0.66823491     0.91600
O1452       O  0.45925871  0.73548109  0.64730785    -0.84500
O1453       O  0.33332357  0.79026881  0.75946791    -0.84000
C1454       C  0.34877995  0.85050778  0.64331020     0.95400
O1455       O  0.32062601  0.82910315  0.66018513    -0.73100
O1456       O  0.28826567  0.78347129  0.71293191    -0.76700
Al1457     Al  0.32066623  0.83325435  0.70846954     1.49000
C1458       C  0.29108305  0.76278533  0.69300633     0.90700
O1459       O  0.39025766  0.79203391  0.68620090    -0.82900
O1460       O  0.43147456  0.87433144  0.73065761    -0.76400
Al1461     Al  0.36169627  0.79372383  0.72136008     1.90100
O1462       O  0.41679977  0.84724019  0.66631522    -0.75500
O1463       O  0.39094370  0.90316097  0.72483855    -0.75400
O1464       O  0.37649753  0.87616514  0.65739868    -0.81000
O1465       O  0.33820608  0.88303489  0.70400133    -0.79200
O1466       O  0.36226056  0.83321827  0.70843464    -1.15400
O1467       O  0.32479578  0.83743421  0.75675217    -0.74600
C1468       C  0.33151979  0.81604503  0.77358139     0.96200
C1469       C  0.41059227  0.81499856  0.66521353     0.92600
Al1470     Al  0.40131403  0.87268136  0.69550238     1.55600
O1471       O  0.32082336  0.76330617  0.69201944    -0.79200
C1472       C  0.36176076  0.90373860  0.72387054     0.96700
C1473       C  0.42874535  0.85136270  0.75164645     0.91600
O1474       O  0.40263681  0.81912651  0.75054731    -0.84500
O1475       O  0.33414867  0.79072473  0.82404400    -0.84000
C1476       C  0.31879376  0.83563877  0.94023749     0.95400
O1477       O  0.34695075  0.84240058  0.92337237    -0.73100
O1478       O  0.37922586  0.82901150  0.87061824    -0.76700
Al1479     Al  0.34693740  0.84648555  0.87508571     1.49000
C1480       C  0.37631803  0.80547042  0.89050481     0.90700
O1481       O  0.27709287  0.73562304  0.89724129    -0.82900
O1482       O  0.23604349  0.77672354  0.85294453    -0.76400
Al1483     Al  0.30571497  0.76584751  0.86212029     1.90100
O1484       O  0.25073910  0.76440446  0.91727498    -0.75500
O1485       O  0.27673768  0.84616009  0.85874326    -0.75400
O1486       O  0.29117389  0.83372564  0.92615344    -0.81000
O1487       O  0.32951324  0.87881351  0.87954882    -0.79200
O1488       O  0.30527528  0.80485012  0.87509707    -1.15400
O1489       O  0.34283644  0.84649207  0.82680275    -0.74600
C1490       C  0.33603848  0.81832688  0.80995206     0.96200
C1491       C  0.25684729  0.73831202  0.91829522     0.92600
Al1492     Al  0.26628293  0.80532161  0.88807710     1.55600
O1493       O  0.34653102  0.77625999  0.89146052    -0.79200
C1494       C  0.30596415  0.87593468  0.85968895     0.96700
C1495       C  0.23872886  0.75647492  0.83189295     0.91600
O1496       O  0.26481003  0.75034636  0.83292557    -0.84500
O1497       O  0.39091581  0.48725698  0.97483093    -0.84000
C1498       C  0.29119619  0.52780998  0.94293145     0.95400
O1499       O  0.28832637  0.50427010  0.96280215    -0.73100
O1500       O  0.32070397  0.99094208  0.91011127    -0.76700
Al1501     Al  0.32068442  0.48686360  0.95840172     1.49000
C1502       C  0.34887207  0.99771718  0.89325780     0.90700
O1503       O  0.41684698  0.56895496  0.91620488    -0.82900
O1504       O  0.40271484  0.58306295  0.50049941    -0.76400
Al1505     Al  0.40133378  0.52806494  0.94543983     1.90100
O1506       O  0.39039554  0.59767934  0.93615127    -0.75500
O1507       O  0.33340735  0.54265620  0.50942746    -0.75400
O1508       O  0.32097494  0.55702703  0.94196222    -0.81000
O1509       O  0.32474141  0.48689362  0.50669193    -0.79200
O1510       O  0.36231063  0.52851050  0.95838439    -1.15400
O1511       O  0.33815314  0.95458465  0.95400467    -0.74600
C1512       C  0.36169394  0.95748271  0.97388745     0.96200
C1513       C  0.41066154  0.59499607  0.91511876     0.92600
Al1514     Al  0.36181213  0.56749875  0.97130866     1.55600
O1515       O  0.37649311  0.49962430  0.90735909    -0.79200
C1516       C  0.33147501  0.51504243  0.52354005     0.96700
C1517       C  0.42878600  0.57692310  0.50158278     0.91600
O1518       O  0.43151112  0.55668178  0.98056008    -0.84500
O1519       O  0.27643957  0.93007729  0.60864628    -0.84000
C1520       C  0.37629583  0.57050397  0.64051945     0.95400
O1521       O  0.37909261  0.54979731  0.62060577    -0.73100
O1522       O  0.34668224  0.00412688  0.67333808    -0.76700
Al1523     Al  0.34668152  0.50001409  0.62505826     1.49000
C1524       C  0.31853966  0.98270743  0.69022032     0.90700
O1525       O  0.25046425  0.98594313  0.66716689    -0.82900
O1526       O  0.26470664  0.51416453  0.58305018    -0.76400
Al1527     Al  0.26601875  0.96053989  0.63798999     1.90100
O1528       O  0.27713543  0.54120932  0.64740061    -0.75500
O1529       O  0.33399097  0.54300641  0.57405194    -0.75400
O1530       O  0.34654890  0.56996270  0.64153692    -0.81000
O1531       O  0.34257043  0.49586831  0.57677147    -0.79200
O1532       O  0.30508951  0.50003449  0.62509665    -1.15400
O1533       O  0.32915997  0.95023336  0.62951162    -0.74600
C1534       C  0.30563555  0.92952230  0.60962713     0.96200
C1535       C  0.25674420  0.51821102  0.66833161     0.92600
Al1536     Al  0.30565724  0.53954175  0.61220979     1.55600
O1537       O  0.29080459  0.95706224  0.67613432    -0.79200
C1538       C  0.33587255  0.51727229  0.55993273     0.96700
C1539       C  0.23862998  0.98191265  0.58187370     0.91600
O1540       O  0.23590917  0.95889946  0.60280347    -0.84500
O1541       O  0.44307167  0.76340637  0.94191595    -0.84000
C1542       C  0.04296042  0.90380112  0.97388364     0.95400
O1543       O  0.04576621  0.88309621  0.95397070    -0.73100
O1544       O  0.51333886  0.83739424  0.50665454    -0.76700
Al1545     Al  0.51333690  0.83330577  0.95837135     1.49000
C1546       C  0.48517668  0.81598080  0.52351468     0.90700
O1547       O  0.41718236  0.81927449  0.50051568    -0.82900
O1548       O  0.43141530  0.84751721  0.91635119    -0.76400
Al1549     Al  0.43268891  0.79386346  0.97129881     1.90100
O1550       O  0.44379921  0.87452220  0.98072185    -0.75500
O1551       O  0.50070708  0.87636182  0.90740320    -0.75400
O1552       O  0.51321449  0.90326225  0.97489251    -0.81000
O1553       O  0.00924564  0.82919959  0.91008420    -0.79200
O1554       O  0.47175539  0.83334885  0.95841142    -1.15400
O1555       O  0.49579127  0.78351226  0.96277675    -0.74600
C1556       C  0.47225468  0.76282608  0.94288459     0.96200
C1557       C  0.42343550  0.85153163  0.50167335     0.92600
Al1558     Al  0.47234301  0.87287055  0.94554049     1.55600
O1559       O  0.45746988  0.79032512  0.50940984    -0.79200
C1560       C  0.00255197  0.85061657  0.89326577     0.96700
C1561       C  0.40532940  0.81527591  0.91519169     0.91600
O1562       O  0.40257853  0.79226945  0.93614235    -0.84500
O1563       O  0.29077917  0.83305276  0.99072252    -0.84000
C1564       C  0.35090746  0.84840402  0.60690510     0.95400
O1565       O  0.32950401  0.82026816  0.59002624    -0.73100
O1566       O  0.28391657  0.78795511  0.53724885    -0.76700
Al1567     Al  0.33370181  0.82032642  0.54174443     1.49000
C1568       C  0.26321206  0.79076420  0.55716265     0.90700
O1569       O  0.29249612  0.88991164  0.56400961    -0.82900
O1570       O  0.37485925  0.93113276  0.51951968    -0.76400
Al1571     Al  0.29420500  0.86138504  0.52884180     1.90100
O1572       O  0.34771642  0.91646874  0.58386802    -0.75500
O1573       O  0.40365280  0.89055362  0.52537464    -0.75400
O1574       O  0.37658985  0.87612143  0.59282261    -0.81000
O1575       O  0.38348168  0.83783111  0.54624634    -0.79200
O1576       O  0.33368970  0.86192561  0.54176953    -1.15400
O1577       O  0.33792095  0.82446903  0.99346123    -0.74600
C1578       C  0.31653808  0.83119430  0.97661810     0.96200
C1579       C  0.31546462  0.91025612  0.58497877     0.92600
Al1580     Al  0.37316418  0.90095617  0.55469775     1.55600
O1581       O  0.26374841  0.82050400  0.55816143    -0.79200
C1582       C  0.40419842  0.86135702  0.52635510     0.96700
C1583       C  0.35187967  0.92842759  0.99855336     0.91600
O1584       O  0.31963304  0.90233612  0.49967510    -0.84500
O1585       O  0.66747561  0.45733848  0.49071092    -0.84000
C1586       C  0.65205970  0.50227111  0.10688324     0.95400
O1587       O  0.68020421  0.00902273  0.09002518    -0.73100
O1588       O  0.71253056  0.49564166  0.03730590    -0.76700
Al1589     Al  0.68022878  0.51310440  0.04174214     1.49000
C1590       C  0.70962501  0.47210206  0.05719362     0.90700
O1591       O  0.61039495  0.40224821  0.06390673    -0.82900
O1592       O  0.56935622  0.44332186  0.01958101    -0.76400
Al1593     Al  0.63903085  0.43246583  0.02878873     1.90100
O1594       O  0.58402809  0.43103032  0.08391087    -0.75500
O1595       O  0.61002048  0.51275541  0.02536266    -0.75400
O1596       O  0.62444191  0.50034750  0.09278672    -0.81000
O1597       O  0.66277095  0.04541849  0.04617556    -0.79200
O1598       O  0.63857469  0.47146599  0.04174816    -1.15400
O1599       O  0.67615214  0.51310268  0.49345942    -0.74600
C1600       C  0.66937525  0.48494166  0.47661174     0.96200
C1601       C  0.59013589  0.40493924  0.08494323     0.92600
Al1602     Al  0.59957262  0.47193212  0.05470840     1.55600
O1603       O  0.67984008  0.44288892  0.05814655    -0.79200
C1604       C  0.63922131  0.04252852  0.02630977     0.96700
C1605       C  0.57204994  0.42306844  0.49854453     0.91600
O1606       O  0.59813751  0.41694982  0.99958319    -0.84500
O1607       O  0.66671568  0.45691083  0.42612026    -0.84000
C1608       C  0.68212536  0.01717789  0.30995752     0.95400
O1609       O  0.65398368  0.99576306  0.32684115    -0.73100
O1610       O  0.62164875  0.45011337  0.37958679    -0.76700
Al1611     Al  0.65402740  0.99990511  0.37512264     1.49000
C1612       C  0.62446599  0.42943457  0.35965150     0.90700
O1613       O  0.72364640  0.45871298  0.35283923    -0.82900
O1614       O  0.76482578  0.04101188  0.39733765    -0.76400
Al1615     Al  0.69508239  0.46037840  0.38799935     1.90100
O1616       O  0.75020653  0.01394755  0.33299606    -0.75500
O1617       O  0.72427488  0.06982755  0.39149800    -0.75400
O1618       O  0.70986213  0.04282294  0.32404085    -0.81000
O1619       O  0.67154250  0.04967887  0.37064994    -0.79200
O1620       O  0.69562798  0.99988344  0.37508356    -1.15400
O1621       O  0.65816687  0.50406513  0.42340840    -0.74600
C1622       C  0.66488845  0.48267417  0.44023707     0.96200
C1623       C  0.74401569  0.48170351  0.33188728     0.92600
Al1624     Al  0.73467565  0.03935968  0.36216714     1.55600
O1625       O  0.65420818  0.42996226  0.35865579    -0.79200
C1626       C  0.69508236  0.07038812  0.39052375     0.96700
C1627       C  0.76211619  0.01801969  0.41829138     0.91600
O1628       O  0.73602504  0.48576735  0.41717809    -0.84500
O1629       O  0.50001942  0.12368108  0.09272580    -0.84000
C1630       C  0.51546807  0.18386384  0.47653844     0.95400
O1631       O  0.48732012  0.16245814  0.49341799    -0.73100
O1632       O  0.95497335  0.11685148  0.04618392    -0.76700
Al1633     Al  0.48735228  0.16663107  0.04169872     1.49000
C1634       C  0.95780569  0.09615951  0.02627746     0.90700
O1635       O  0.55697038  0.12543043  0.01949759    -0.82900
O1636       O  0.59816665  0.20774928  0.06393475    -0.76400
Al1637     Al  0.52840365  0.12712881  0.05463489     1.90100
O1638       O  0.58351494  0.18062770  0.99958919    -0.75500
O1639       O  0.55759479  0.23655808  0.05807066    -0.75400
O1640       O  0.54319092  0.20952546  0.49062202    -0.81000
O1641       O  0.50487087  0.21640668  0.03720084    -0.79200
O1642       O  0.52895581  0.16661101  0.04168470    -1.15400
O1643       O  0.99147026  0.17083226  0.08998209    -0.74600
C1644       C  0.99819548  0.14945243  0.10682560     0.96200
C1645       C  0.57730787  0.14838347  0.49850720     0.92600
Al1646     Al  0.56800340  0.20607550  0.02875332     1.55600
O1647       O  0.48755040  0.09669477  0.02529746    -0.79200
C1648       C  0.52839599  0.23711159  0.05708912     0.96700
C1649       C  0.59544039  0.18477839  0.08492355     0.91600
O1650       O  0.56933254  0.15254358  0.08382231    -0.84500
O1651       O  0.73704123  0.17947753  0.44192200    -0.84000
C1652       C  0.59656979  0.13854322  0.47386421     0.95400
O1653       O  0.61727352  0.16204772  0.45395406    -0.73100
O1654       O  0.66291662  0.17546575  0.00669645    -0.76700
Al1655     Al  0.66705860  0.17956347  0.45840756     1.49000
C1656       C  0.68433504  0.16878539  0.02353409     0.90700
O1657       O  0.68127243  0.09762650  0.00044121    -0.82900
O1658       O  0.65300995  0.08337450  0.41637994    -0.76400
Al1659     Al  0.70662831  0.13858245  0.47126394     1.90100
O1660       O  0.62598015  0.06885457  0.48074710    -0.75500
O1661       O  0.62411784  0.12368770  0.40736497    -0.75400
O1662       O  0.59713338  0.10935814  0.47487522    -0.81000
O1663       O  0.67117771  0.17956758  0.41012623    -0.79200
O1664       O  0.66709977  0.13799103  0.45839433    -1.15400
O1665       O  0.71684253  0.21199151  0.46284423    -0.74600
C1666       C  0.73756944  0.20921257  0.44293572     0.96200
C1667       C  0.64901435  0.07156379  0.00164367     0.92600
Al1668     Al  0.62760426  0.09893365  0.44553855     1.55600
O1669       O  0.71007589  0.16690298  0.00941273    -0.79200
C1670       C  0.64975377  0.15142678  0.39325977     0.96700
C1671       C  0.68528105  0.08965441  0.41518318     0.91600
O1672       O  0.70830452  0.11007557  0.43607354    -0.84500
O1673       O  0.95776312  0.16704554  0.25940016    -0.84000
C1674       C  0.00269160  0.15172972  0.14319790     0.95400
O1675       O  0.50945167  0.17988115  0.16005217    -0.73100
O1676       O  0.99603870  0.21212440  0.21280486    -0.76700
Al1677     Al  0.01354524  0.17986818  0.20833721     1.49000
C1678       C  0.97248602  0.20920767  0.19293126     0.90700
O1679       O  0.90266517  0.10998812  0.18622393    -0.82900
O1680       O  0.94380025  0.06897594  0.23049235    -0.76400
Al1681     Al  0.93289066  0.13861370  0.22133390     1.90100
O1682       O  0.93148839  0.08368645  0.16616710    -0.75500
O1683       O  0.01324836  0.10969406  0.22469415    -0.75400
O1684       O  0.00082527  0.12413747  0.15728768    -0.81000
O1685       O  0.54589991  0.16246704  0.20387584    -0.79200
O1686       O  0.97191328  0.13820115  0.20834508    -1.15400
O1687       O  0.01355965  0.17577683  0.25661910    -0.74600
C1688       C  0.98539179  0.16897882  0.27348284     0.96200
C1689       C  0.90537559  0.08976931  0.16515941     0.92600
Al1690     Al  0.97240725  0.09923074  0.19536231     1.55600
O1691       O  0.94327884  0.17941755  0.19198601    -0.79200
C1692       C  0.54302263  0.13892320  0.22374463     0.96700
C1693       C  0.92355151  0.07164898  0.25155825     0.91600
O1694       O  0.91741345  0.09772081  0.25053851    -0.84500
O1695       O  0.72412163  0.15392219  0.14149293    -0.84000
C1696       C  0.62449569  0.19458926  0.10958733     0.95400
O1697       O  0.62160280  0.17105076  0.12947263    -0.73100
O1698       O  0.65395745  0.15766091  0.07678556    -0.76700
Al1699     Al  0.65392881  0.15360109  0.12507342     1.49000
C1700       C  0.68211619  0.16440808  0.05992826     0.90700
O1701       O  0.75014657  0.23566700  0.08294929    -0.82900
O1702       O  0.73599556  0.24975741  0.16723477    -0.76400
Al1703     Al  0.73458284  0.19475894  0.11214447     1.90100
O1704       O  0.72372181  0.26442165  0.10288337    -0.75500
O1705       O  0.66665874  0.20937851  0.17610273    -0.75400
O1706       O  0.65428508  0.22380064  0.10863296    -0.81000
O1707       O  0.65799210  0.15361935  0.17336256    -0.79200
O1708       O  0.69557271  0.19523174  0.12507308    -1.15400
O1709       O  0.67136176  0.12126933  0.12066688    -0.74600
C1710       C  0.69490660  0.12414160  0.14053038     0.96200
C1711       C  0.74398992  0.26172387  0.08186482     0.92600
Al1712     Al  0.69510191  0.23423264  0.13801224     1.55600
O1713       O  0.70974935  0.16636813  0.07403095    -0.79200
C1714       C  0.66476563  0.18178082  0.19020902     0.96700
C1715       C  0.76204853  0.24358633  0.16832752     0.91600
O1716       O  0.76475205  0.22333257  0.14730128    -0.84500
O1717       O  0.54323799  0.20948387  0.42603871    -0.84000
C1718       C  0.98313598  0.16451335  0.30986006     0.95400
O1719       O  0.00453730  0.15780537  0.32669171    -0.73100
O1720       O  0.55012594  0.17120728  0.37945671    -0.76700
Al1721     Al  0.00034246  0.15366732  0.37497602     1.49000
C1722       C  0.57082987  0.19474460  0.35956908     0.90700
O1723       O  0.54142711  0.26444477  0.35275117    -0.82900
O1724       O  0.95909416  0.22321505  0.39726127    -0.76400
Al1725     Al  0.53977027  0.23429600  0.38791815     1.90100
O1726       O  0.98619980  0.23562943  0.33290829    -0.75500
O1727       O  0.93036917  0.15379106  0.39142939    -0.75400
O1728       O  0.95736473  0.16634006  0.32397503    -0.81000
O1729       O  0.95055826  0.12126504  0.37050531    -0.79200
O1730       O  0.00030091  0.19524954  0.37500348    -1.15400
O1731       O  0.49617186  0.15361735  0.42325928    -0.74600
C1732       C  0.51757719  0.18176032  0.44013120     0.96200
C1733       C  0.51844488  0.26172778  0.33178701     0.92600
Al1734     Al  0.96079683  0.19467942  0.36209156     1.55600
O1735       O  0.57026002  0.22392593  0.35858557    -0.79200
C1736       C  0.92985591  0.12406017  0.39043331     0.96700
C1737       C  0.98207411  0.24356665  0.41821991     0.91600
O1738       O  0.51432577  0.24978691  0.41709339    -0.84500
O1739       O  0.62402228  0.99969353  0.15736177    -0.84000
C1740       C  0.68420977  0.01509527  0.27354503     0.95400
O1741       O  0.66279211  0.98695917  0.25667162    -0.73100
O1742       O  0.61720806  0.45462694  0.20390926    -0.76700
Al1743     Al  0.66696784  0.98699761  0.20838930     1.49000
C1744       C  0.59650604  0.45743158  0.22382969     0.90700
O1745       O  0.62575508  0.05657740  0.23063809    -0.82900
O1746       O  0.70809894  0.09777061  0.18611285    -0.76400
Al1747     Al  0.62745147  0.02803597  0.19547915     1.90100
O1748       O  0.68099404  0.08316205  0.25045603    -0.75500
O1749       O  0.73691020  0.05721356  0.19199245    -0.75400
O1750       O  0.70986545  0.04282501  0.25945166    -0.81000
O1751       O  0.71674677  0.00450105  0.21288283    -0.79200
O1752       O  0.66694747  0.02859056  0.20840022    -1.15400
O1753       O  0.67119406  0.49113070  0.16011143    -0.74600
C1754       C  0.64980294  0.49783997  0.14326490     0.96200
C1755       C  0.64874485  0.07694988  0.25157955     0.92600
Al1756     Al  0.70642563  0.06762797  0.22130449     1.55600
O1757       O  0.59700982  0.98716095  0.22481783    -0.79200
C1758       C  0.73746498  0.02802275  0.19299070     0.96700
C1759       C  0.68510363  0.09507022  0.16516867     0.91600
O1760       O  0.65285700  0.06898062  0.16630174    -0.84500
O1761       O  0.60977037  0.09683687  0.27521632    -0.84000
C1762       C  0.70965084  0.23721832  0.30724146     0.95400
O1763       O  0.71246314  0.21651938  0.28732440    -0.73100
O1764       O  0.67999704  0.17079147  0.33998350    -0.76700
Al1765     Al  0.68002168  0.16672743  0.29170217     1.49000
C1766       C  0.65183768  0.14936583  0.35684178     0.90700
O1767       O  0.58383385  0.15269328  0.33373909    -0.82900
O1768       O  0.59813748  0.18097317  0.24960076    -0.76400
Al1769     Al  0.59936737  0.12729539  0.30456545     1.90100
O1770       O  0.61048014  0.20795586  0.31397793    -0.75500
O1771       O  0.66745733  0.20981528  0.24072239    -0.75400
O1772       O  0.67990861  0.23669155  0.30822465    -0.81000
O1773       O  0.67595182  0.16262912  0.24341164    -0.79200
O1774       O  0.63844702  0.16678154  0.29171129    -1.15400
O1775       O  0.66247497  0.11693630  0.29610647    -0.74600
C1776       C  0.63894507  0.09624599  0.27621307     0.96200
C1777       C  0.59009030  0.18494865  0.33490298     0.92600
Al1778     Al  0.63905472  0.20631368  0.27882991     1.55600
O1779       O  0.62410119  0.12375372  0.34272632    -0.79200
C1780       C  0.66926116  0.18404657  0.22659001     0.96700
C1781       C  0.57204936  0.14872942  0.24842624     0.91600
O1782       O  0.56929904  0.12571465  0.26936777    -0.84500
O1783       O  0.55748659  0.32057100  0.30810314    -0.84000
C1784       C  0.95781538  0.36119059  0.27632196     0.95400
O1785       O  0.95495223  0.33766265  0.29620233    -0.73100
O1786       O  0.48729065  0.32432492  0.24345232    -0.76700
Al1787     Al  0.48729011  0.32024277  0.29173954     1.49000
C1788       C  0.51544161  0.33108083  0.22657593     0.90700
O1789       O  0.58348456  0.40234929  0.24960128    -0.82900
O1790       O  0.56937516  0.41642023  0.33387214    -0.76400
Al1791     Al  0.56793589  0.36142389  0.27877609     1.90100
O1792       O  0.55701879  0.43106350  0.26953741    -0.75500
O1793       O  0.50005428  0.37601055  0.34280143    -0.75400
O1794       O  0.48759246  0.39041252  0.27535438    -0.81000
O1795       O  0.99138162  0.32024609  0.34002768    -0.79200
O1796       O  0.52892630  0.36188122  0.29173248    -1.15400
O1797       O  0.50473093  0.28792879  0.28727313    -0.74600
C1798       C  0.52826712  0.29079311  0.30713910     0.96200
C1799       C  0.57729852  0.42838714  0.24851642     0.92600
Al1800     Al  0.52844691  0.40087077  0.30468908     1.55600
O1801       O  0.54309106  0.33305417  0.24065732    -0.79200
C1802       C  0.99813913  0.34839428  0.35689102     0.96700
C1803       C  0.59542405  0.41024338  0.33495857     0.91600
O1804       O  0.59811468  0.38998007  0.31393394    -0.84500
O1805       O  0.76390573  0.44274101  0.30825788    -0.84000
C1806       C  0.90431251  0.04256973  0.27622228     0.95400
O1807       O  0.88361713  0.04537106  0.29615701    -0.73100
O1808       O  0.83791435  0.51295969  0.24348779    -0.76700
Al1809     Al  0.83383042  0.51296098  0.29177135     1.49000
C1810       C  0.81648329  0.48481171  0.22663636     0.90700
O1811       O  0.81974084  0.41677553  0.24972155    -0.82900
O1812       O  0.84803117  0.43103329  0.33382224    -0.76400
Al1813     Al  0.79435721  0.43232741  0.27890482     1.90100
O1814       O  0.87502356  0.44341249  0.26943710    -0.75500
O1815       O  0.87688703  0.50032676  0.34273549    -0.75400
O1816       O  0.90378871  0.51282932  0.27522077    -0.81000
O1817       O  0.82970670  0.00886929  0.34005427    -0.79200
O1818       O  0.83386027  0.47138146  0.29175120    -1.15400
O1819       O  0.78403658  0.49544867  0.28736796    -0.74600
C1820       C  0.76332490  0.47191478  0.30725759     0.96200
C1821       C  0.85199766  0.42301922  0.24853435     0.92600
Al1822     Al  0.87338921  0.47196217  0.30460693     1.55600
O1823       O  0.79084468  0.45708845  0.24075580    -0.79200
C1824       C  0.85112187  0.00216911  0.35687221     0.96700
C1825       C  0.81577290  0.40496563  0.33501715     0.91600
O1826       O  0.79275051  0.40224291  0.31410026    -0.84500
O1827       O  0.93041372  0.27598036  0.14153180    -0.84000
C1828       C  0.57084625  0.37584962  0.10957397     0.95400
O1829       O  0.55012578  0.37864354  0.12948068    -0.73100
O1830       O  0.00444901  0.34624429  0.07678584    -0.76700
Al1831     Al  0.50033347  0.34622634  0.12506870     1.49000
C1832       C  0.98303772  0.31809444  0.05992648     0.90700
O1833       O  0.98630094  0.25009151  0.08293421    -0.82900
O1834       O  0.51452788  0.26429659  0.16707447    -0.76400
Al1835     Al  0.96088012  0.26559757  0.11214872     1.90100
O1836       O  0.54155983  0.27671241  0.10270565    -0.75500
O1837       O  0.54336565  0.33356065  0.17604396    -0.75400
O1838       O  0.57030472  0.34610864  0.10855628    -0.81000
O1839       O  0.49620968  0.34212710  0.17335702    -0.79200
O1840       O  0.50037124  0.30465024  0.12503221    -1.15400
O1841       O  0.95053672  0.32869070  0.12065317    -0.74600
C1842       C  0.92984562  0.30516412  0.14055932     0.96200
C1843       C  0.51856622  0.25634740  0.08176669     0.92600
Al1844     Al  0.53989350  0.30522958  0.13789653     1.55600
O1845       O  0.95736534  0.29039034  0.07403154    -0.79200
C1846       C  0.51763580  0.33544799  0.19018111     0.96700
C1847       C  0.98227959  0.23821779  0.16824555     0.91600
O1848       O  0.95926708  0.23547878  0.14731026    -0.84500
O1849       O  0.83332749  0.29027126  0.25948625    -0.84000
C1850       C  0.84879635  0.35049905  0.14331986     0.95400
O1851       O  0.82064075  0.32909686  0.16019493    -0.73100
O1852       O  0.78827078  0.28347295  0.21294719    -0.76700
Al1853     Al  0.82067755  0.33325430  0.20847919     1.49000
C1854       C  0.79108432  0.26278079  0.19302612     0.90700
O1855       O  0.89025738  0.29201806  0.18622218    -0.82900
O1856       O  0.93148051  0.37432325  0.23067712    -0.76400
Al1857     Al  0.86169881  0.29371674  0.22138133     1.90100
O1858       O  0.91680706  0.34722529  0.16633802    -0.75500
O1859       O  0.89095711  0.40315784  0.22484791    -0.75400
O1860       O  0.87651474  0.37615503  0.15740870    -0.81000
O1861       O  0.83822324  0.38303555  0.20400401    -0.79200
O1862       O  0.86226874  0.33321255  0.20845055    -1.15400
O1863       O  0.82480444  0.33743964  0.25676209    -0.74600
C1864       C  0.83152519  0.31605119  0.27359541     0.96200
C1865       C  0.91059273  0.31498185  0.16523402     0.92600
Al1866     Al  0.90132511  0.37267234  0.19551814     1.55600
O1867       O  0.82082266  0.26329767  0.19204218    -0.79200
C1868       C  0.86177567  0.40373855  0.22387464     0.96700
C1869       C  0.92875069  0.35135534  0.25166822     0.91600
O1870       O  0.90264226  0.31911974  0.25056959    -0.84500
O1871       O  0.83415231  0.29073226  0.32405804    -0.84000
C1872       C  0.81878659  0.33563400  0.44024949     0.95400
O1873       O  0.84694622  0.34240162  0.42338473    -0.73100
O1874       O  0.87923117  0.32902390  0.37063215    -0.76700
Al1875     Al  0.84693560  0.34649045  0.37509937     1.49000
C1876       C  0.87632705  0.30548099  0.39051429     0.90700
O1877       O  0.77709964  0.23562756  0.39725519    -0.82900
O1878       O  0.73604505  0.27672413  0.35294678    -0.76400
Al1879     Al  0.80572003  0.26585265  0.36213341     1.90100
O1880       O  0.75073183  0.26440017  0.41727781    -0.75500
O1881       O  0.77673670  0.34616154  0.35875001    -0.75400
O1882       O  0.79116658  0.33372042  0.42616567    -0.81000
O1883       O  0.82950707  0.37881499  0.37956353    -0.79200
O1884       O  0.80527524  0.30485268  0.37510815    -1.15400
O1885       O  0.84283737  0.34649898  0.32681625    -0.74600
C1886       C  0.83604148  0.31833328  0.30996585     0.96200
C1887       C  0.75684439  0.23831105  0.41830260     0.92600
Al1888     Al  0.76627974  0.30532070  0.38808360     1.55600
O1889       O  0.84653939  0.27627085  0.39147268    -0.79200
C1890       C  0.80596360  0.37593655  0.35969748     0.96700
C1891       C  0.73872947  0.25647013  0.33190095     0.91600
O1892       O  0.76481181  0.25034295  0.33293796    -0.84500
O1893       O  0.89090497  0.98727103  0.47483306    -0.84000
C1894       C  0.79118733  0.02782558  0.44292865     0.95400
O1895       O  0.78831745  0.00428642  0.46279968    -0.73100
O1896       O  0.82070743  0.49092169  0.41011259    -0.76700
Al1897     Al  0.82067661  0.98688107  0.45840018     1.49000
C1898       C  0.84887617  0.49769896  0.39325826     0.90700
O1899       O  0.91684411  0.06897461  0.41621815    -0.82900
O1900       O  0.90270697  0.08308125  0.00050669    -0.76400
Al1901     Al  0.90132688  0.02808280  0.44544704     1.90100
O1902       O  0.89038845  0.09769793  0.43615755    -0.75500
O1903       O  0.83339618  0.04266940  0.00943068    -0.75400
O1904       O  0.82096581  0.05704418  0.44196296    -0.81000
O1905       O  0.82472926  0.98690653  0.00669004    -0.79200
O1906       O  0.86230274  0.02852792  0.45838781    -1.15400
O1907       O  0.83816192  0.45456783  0.45400719    -0.74600
C1908       C  0.86170378  0.45746857  0.47388981     0.96200
C1909       C  0.91065827  0.09501496  0.41512942     0.92600
Al1910     Al  0.86180287  0.06751542  0.47131321     1.55600
O1911       O  0.87649161  0.99964864  0.40736025    -0.79200
C1912       C  0.83146247  0.01505317  0.02354068     0.96700
C1913       C  0.92877725  0.07694071  0.00159235     0.91600
O1914       O  0.93150032  0.05669541  0.48057190    -0.84500
O1915       O  0.77645849  0.43008010  0.10865281    -0.84000
C1916       C  0.87628125  0.07050227  0.14052543     0.95400
O1917       O  0.87907777  0.04979542  0.12061115    -0.73100
O1918       O  0.84670107  0.50413573  0.17334033    -0.76700
Al1919     Al  0.84666392  0.00001081  0.12505667     1.49000
C1920       C  0.81855810  0.48271523  0.19022269     0.90700
O1921       O  0.75048453  0.48595095  0.16716999    -0.82900
O1922       O  0.76469281  0.01416579  0.08305055    -0.76400
Al1923     Al  0.76603720  0.46054427  0.13799379     1.90100
O1924       O  0.77711812  0.04120397  0.14740288    -0.75500
O1925       O  0.83397828  0.04301129  0.07405622    -0.75400
O1926       O  0.84653340  0.06995942  0.14154399    -0.81000
O1927       O  0.84255466  0.99587126  0.07676936    -0.79200
O1928       O  0.80507249  0.00003166  0.12509617    -1.15400
O1929       O  0.82917919  0.45023752  0.12951891    -0.74600
C1930       C  0.80565416  0.42952450  0.10963584     0.96200
C1931       C  0.75672433  0.01820289  0.16833079     0.92600
Al1932     Al  0.80564196  0.03954079  0.11221326     1.55600
O1933       O  0.79082472  0.45706932  0.17613699    -0.79200
C1934       C  0.83585883  0.01727888  0.05993348     0.96700
C1935       C  0.73864328  0.48191161  0.08187720     0.91600
O1936       O  0.73592492  0.45890052  0.10280822    -0.84500
O1937       O  0.94308657  0.26341316  0.44191593    -0.84000
C1938       C  0.54297048  0.40380045  0.47390113     0.95400
O1939       O  0.54578090  0.38309771  0.45399045    -0.73100
O1940       O  0.01334547  0.33739025  0.00666755    -0.76700
Al1941     Al  0.01335273  0.33330711  0.45838409     1.49000
C1942       C  0.98518065  0.31597500  0.02352293     0.90700
O1943       O  0.91719718  0.31927249  0.00052029    -0.82900
O1944       O  0.93143672  0.34752118  0.41634918    -0.76400
Al1945     Al  0.93270233  0.29386439  0.47130153     1.90100
O1946       O  0.94380619  0.37451847  0.48072201    -0.75500
O1947       O  0.00073348  0.37636826  0.40741395    -0.75400
O1948       O  0.01322382  0.40326139  0.47490526    -0.81000
O1949       O  0.50927234  0.32920644  0.41009633    -0.79200
O1950       O  0.97177070  0.33335021  0.45841776    -1.15400
O1951       O  0.99580338  0.28351269  0.46278343    -0.74600
C1952       C  0.97226960  0.26283237  0.44288656     0.96200
C1953       C  0.92344526  0.35152788  0.00167506     0.92600
Al1954     Al  0.97235928  0.37287203  0.44554581     1.55600
O1955       O  0.95747883  0.29031797  0.00941291    -0.79200
C1956       C  0.50258014  0.35062482  0.39327699     0.96700
C1957       C  0.90534490  0.31528249  0.41519443     0.91600
O1958       O  0.90259224  0.29227647  0.43614634    -0.84500
O1959       O  0.79077470  0.33303972  0.49073909    -0.84000
C1960       C  0.85092311  0.34839480  0.10691435     0.95400
O1961       O  0.82951761  0.32025981  0.09003590    -0.73100
O1962       O  0.78391948  0.28795096  0.03726784    -0.76700
Al1963     Al  0.83370685  0.32031768  0.04175334     1.49000
C1964       C  0.76321969  0.29076609  0.05718408     0.90700
O1965       O  0.79251465  0.38991637  0.06401807    -0.82900
O1966       O  0.87486768  0.43112621  0.01953085    -0.76400
Al1967     Al  0.79421424  0.36138135  0.02885499     1.90100
O1968       O  0.84773158  0.41646089  0.08388292    -0.75500
O1969       O  0.90365932  0.39054542  0.02537929    -0.75400
O1970       O  0.87660514  0.37611151  0.09283014    -0.81000
O1971       O  0.88348745  0.33781992  0.04624543    -0.79200
O1972       O  0.83369835  0.36191847  0.04178058    -1.15400
O1973       O  0.83791749  0.32445851  0.49346906    -0.74600
C1974       C  0.81653306  0.33118384  0.47662992     0.96200
C1975       C  0.81548237  0.41025546  0.08498996     0.92600
Al1976     Al  0.87317520  0.40094787  0.05470741     1.55600
O1977       O  0.76375986  0.32050761  0.05818149    -0.79200
C1978       C  0.90420441  0.36134844  0.02635631     0.96700
C1979       C  0.85188974  0.42841752  0.49856077     0.91600
O1980       O  0.81964334  0.40232542  0.99968177    -0.84500
O1981       O  0.66747555  0.45733836  0.99071093    -0.84000
C1982       C  0.65205995  0.50227115  0.60688325     0.95400
O1983       O  0.68020406  0.00902273  0.59002526    -0.73100
O1984       O  0.71253060  0.49564178  0.53730587    -0.76700
Al1985     Al  0.68022876  0.51310440  0.54174216     1.49000
C1986       C  0.70962490  0.47210199  0.55719368     0.90700
O1987       O  0.61039503  0.40224827  0.56390672    -0.82900
O1988       O  0.56935623  0.44332166  0.51958091    -0.76400
Al1989     Al  0.63903085  0.43246588  0.52878874     1.90100
O1990       O  0.58402804  0.43103020  0.58391081    -0.75500
O1991       O  0.61002043  0.51275544  0.52536267    -0.75400
O1992       O  0.62444176  0.50034740  0.59278674    -0.81000
O1993       O  0.66277093  0.04541854  0.54617563    -0.79200
O1994       O  0.63857472  0.47146602  0.54174817    -1.15400
O1995       O  0.67615219  0.51310262  0.99345934    -0.74600
C1996       C  0.66937536  0.48494217  0.97661175     0.96200
C1997       C  0.59013587  0.40493937  0.58494334     0.92600
Al1998     Al  0.59957256  0.47193208  0.55470843     1.55600
O1999       O  0.67984013  0.44288904  0.55814654    -0.79200
C2000       C  0.63922137  0.04252865  0.52630985     0.96700
C2001       C  0.57205041  0.42306801  0.99854411     0.91600
O2002       O  0.59813774  0.41694980  0.49958317    -0.84500
O2003       O  0.66671561  0.45691090  0.92612029    -0.84000
C2004       C  0.68212573  0.01717810  0.80995751     0.95400
O2005       O  0.65398365  0.99576296  0.82684114    -0.73100
O2006       O  0.62164879  0.45011318  0.87958669    -0.76700
Al2007     Al  0.65402745  0.99990511  0.87512266     1.49000
C2008       C  0.62446551  0.42943500  0.85965191     0.90700
O2009       O  0.72364649  0.45871307  0.85283922    -0.82900
O2010       O  0.76482579  0.04101164  0.89733777    -0.76400
Al2011     Al  0.69508237  0.46037837  0.88799934     1.90100
O2012       O  0.75020650  0.01394732  0.83299613    -0.75500
O2013       O  0.72427484  0.06982748  0.89149797    -0.75400
O2014       O  0.70986207  0.04282284  0.82404080    -0.81000
O2015       O  0.67154246  0.04967875  0.87064990    -0.79200
O2016       O  0.69562801  0.99988334  0.87508359    -1.15400
O2017       O  0.65816677  0.50406516  0.92340845    -0.74600
C2018       C  0.66488854  0.48267376  0.94023705     0.96200
C2019       C  0.74401557  0.48170322  0.83188728     0.92600
Al2020     Al  0.73467571  0.03935968  0.86216709     1.55600
O2021       O  0.65420839  0.42996226  0.85865573    -0.79200
C2022       C  0.69508251  0.07038816  0.89052380     0.96700
C2023       C  0.76211661  0.01802062  0.91829109     0.91600
O2024       O  0.73602513  0.48576763  0.91717807    -0.84500
O2025       O  0.50001949  0.12368114  0.59272586    -0.84000
C2026       C  0.51546834  0.18386421  0.97653843     0.95400
O2027       O  0.48731997  0.16245801  0.99341802    -0.73100
O2028       O  0.95497334  0.11685147  0.54618385    -0.76700
Al2029     Al  0.48735235  0.16663115  0.54169875     1.49000
C2030       C  0.95780553  0.09615973  0.52627767     0.90700
O2031       O  0.55697037  0.12543047  0.51949752    -0.82900
O2032       O  0.59816672  0.20774933  0.56393471    -0.76400
Al2033     Al  0.52840367  0.12712886  0.55463492     1.90100
O2034       O  0.58351500  0.18062775  0.49958917    -0.75500
O2035       O  0.55759472  0.23655810  0.55807061    -0.75400
O2036       O  0.54319075  0.20952532  0.99062200    -0.81000
O2037       O  0.50487086  0.21640667  0.53720075    -0.79200
O2038       O  0.52895588  0.16661109  0.54168470    -1.15400
O2039       O  0.99147022  0.17083251  0.58998199    -0.74600
C2040       C  0.99819560  0.14945159  0.60682559     0.96200
C2041       C  0.57730792  0.14838358  0.99850724     0.92600
Al2042     Al  0.56800349  0.20607551  0.52875330     1.55600
O2043       O  0.48755060  0.09669481  0.52529746    -0.79200
C2044       C  0.52839676  0.23711187  0.55708934     0.96700
C2045       C  0.59544041  0.18477835  0.58492351     0.91600
O2046       O  0.56933263  0.15254361  0.58382223    -0.84500
O2047       O  0.73704129  0.17947748  0.94192195    -0.84000
C2048       C  0.59656976  0.13854313  0.97386433     0.95400
O2049       O  0.61727353  0.16204776  0.95395412    -0.73100
O2050       O  0.66291647  0.17546580  0.50669638    -0.76700
Al2051     Al  0.66705858  0.17956342  0.95840755     1.49000
C2052       C  0.68433563  0.16878535  0.52353409     0.90700
O2053       O  0.68127247  0.09762658  0.50044125    -0.82900
O2054       O  0.65300997  0.08337451  0.91637990    -0.76400
Al2055     Al  0.70662831  0.13858246  0.97126392     1.90100
O2056       O  0.62598007  0.06885449  0.98074713    -0.75500
O2057       O  0.62411790  0.12368777  0.90736494    -0.75400
O2058       O  0.59713339  0.10935818  0.97487525    -0.81000
O2059       O  0.67117780  0.17956767  0.91012625    -0.79200
O2060       O  0.66709978  0.13799098  0.95839431    -1.15400
O2061       O  0.71684260  0.21199149  0.96284413    -0.74600
C2062       C  0.73756927  0.20921264  0.94293583     0.96200
C2063       C  0.64901429  0.07156381  0.50164369     0.92600
Al2064     Al  0.62760423  0.09893363  0.94553857     1.55600
O2065       O  0.71007575  0.16690306  0.50941280    -0.79200
C2066       C  0.64975343  0.15142652  0.89325977     0.96700
C2067       C  0.68528087  0.08965427  0.91518305     0.91600
O2068       O  0.70830452  0.11007554  0.93607360    -0.84500
O2069       O  0.95776317  0.16704556  0.75940014    -0.84000
C2070       C  0.00269171  0.15173073  0.64319791     0.95400
O2071       O  0.50945166  0.17988118  0.66005221    -0.73100
O2072       O  0.99603888  0.21212437  0.71280494    -0.76700
Al2073     Al  0.01354525  0.17986821  0.70833723     1.49000
C2074       C  0.97248554  0.20920744  0.69293108     0.90700
O2075       O  0.90266523  0.10998800  0.68622384    -0.82900
O2076       O  0.94380025  0.06897598  0.73049240    -0.76400
Al2077     Al  0.93289068  0.13861374  0.72133392     1.90100
O2078       O  0.93148847  0.08368634  0.66616712    -0.75500
O2079       O  0.01324842  0.10969406  0.72469410    -0.75400
O2080       O  0.00082527  0.12413724  0.65728775    -0.81000
O2081       O  0.54589989  0.16246701  0.70387587    -0.79200
O2082       O  0.97191327  0.13820110  0.70834507    -1.15400
O2083       O  0.01355975  0.17577688  0.75661909    -0.74600
C2084       C  0.98539167  0.16897874  0.77348297     0.96200
C2085       C  0.90537525  0.08976962  0.66515967     0.92600
Al2086     Al  0.97240728  0.09923077  0.69536229     1.55600
O2087       O  0.94327898  0.17941766  0.69198608    -0.79200
C2088       C  0.54302270  0.13892329  0.72374465     0.96700
C2089       C  0.92355167  0.07164885  0.75155814     0.91600
O2090       O  0.91741340  0.09772082  0.75053851    -0.84500
O2091       O  0.72412150  0.15392207  0.64149295    -0.84000
C2092       C  0.62449575  0.19458928  0.60958731     0.95400
O2093       O  0.62160275  0.17105071  0.62947268    -0.73100
O2094       O  0.65395752  0.15766081  0.57678551    -0.76700
Al2095     Al  0.65392875  0.15360103  0.62507345     1.49000
C2096       C  0.68211545  0.16440797  0.55992827     0.90700
O2097       O  0.75014648  0.23566694  0.58294926    -0.82900
O2098       O  0.73599553  0.24975740  0.66723491    -0.76400
Al2099     Al  0.73458279  0.19475895  0.61214445     1.90100
O2100       O  0.72372182  0.26442166  0.60288351    -0.75500
O2101       O  0.66665866  0.20937851  0.67610270    -0.75400
O2102       O  0.65428509  0.22380060  0.60863296    -0.81000
O2103       O  0.65799209  0.15361940  0.67336260    -0.79200
O2104       O  0.69557266  0.19523176  0.62507308    -1.15400
O2105       O  0.67136171  0.12126927  0.62066675    -0.74600
C2106       C  0.69490692  0.12414180  0.64053051     0.96200
C2107       C  0.74398992  0.26172388  0.58186485     0.92600
Al2108     Al  0.69510191  0.23423264  0.63801234     1.55600
O2109       O  0.70974946  0.16636815  0.57403099    -0.79200
C2110       C  0.66476565  0.18178036  0.69020905     0.96700
C2111       C  0.76204871  0.24358627  0.66832746     0.91600
O2112       O  0.76475208  0.22333262  0.64730127    -0.84500
O2113       O  0.54323804  0.20948396  0.92603869    -0.84000
C2114       C  0.98313604  0.16451326  0.80985999     0.95400
O2115       O  0.00453728  0.15780538  0.82669177    -0.73100
O2116       O  0.55012587  0.17120724  0.87945679    -0.76700
Al2117     Al  0.00034245  0.15366733  0.87497604     1.49000
C2118       C  0.57083013  0.19474505  0.85956883     0.90700
O2119       O  0.54142701  0.26444476  0.85275108    -0.82900
O2120       O  0.95909381  0.22321486  0.89726101    -0.76400
Al2121     Al  0.53977028  0.23429601  0.88791818     1.90100
O2122       O  0.98619981  0.23562944  0.83290823    -0.75500
O2123       O  0.93036917  0.15379097  0.89142932    -0.75400
O2124       O  0.95736471  0.16634005  0.82397505    -0.81000
O2125       O  0.95055828  0.12126499  0.87050525    -0.79200
O2126       O  0.00030089  0.19524960  0.87500347    -1.15400
O2127       O  0.49617202  0.15361741  0.92325929    -0.74600
C2128       C  0.51757682  0.18175995  0.94013119     0.96200
C2129       C  0.51844558  0.26172813  0.83178732     0.92600
Al2130     Al  0.96079693  0.19467952  0.86209155     1.55600
O2131       O  0.57026007  0.22392581  0.85858556    -0.79200
C2132       C  0.92985567  0.12406051  0.89043355     0.96700
C2133       C  0.98207541  0.24356727  0.91822045     0.91600
O2134       O  0.51432588  0.24978689  0.91709338    -0.84500
O2135       O  0.62402242  0.99969342  0.65736172    -0.84000
C2136       C  0.68420958  0.01509497  0.77354497     0.95400
O2137       O  0.66279224  0.98695927  0.75667159    -0.73100
O2138       O  0.61720805  0.45462697  0.70390929    -0.76700
Al2139     Al  0.66696789  0.98699767  0.70838927     1.49000
C2140       C  0.59650624  0.45743143  0.72382967     0.90700
O2141       O  0.62575525  0.05657744  0.73063818    -0.82900
O2142       O  0.70809899  0.09777060  0.68611287    -0.76400
Al2143     Al  0.62745142  0.02803588  0.69547917     1.90100
O2144       O  0.68099429  0.08316210  0.75045596    -0.75500
O2145       O  0.73691021  0.05721348  0.69199234    -0.75400
O2146       O  0.70986555  0.04282514  0.75945160    -0.81000
O2147       O  0.71674674  0.00450101  0.71288284    -0.79200
O2148       O  0.66694749  0.02859058  0.70840020    -1.15400
O2149       O  0.67119414  0.49113073  0.66011144    -0.74600
C2150       C  0.64980272  0.49784005  0.64326491     0.96200
C2151       C  0.64874421  0.07694957  0.75157930     0.92600
Al2152     Al  0.70642565  0.06762795  0.72130442     1.55600
O2153       O  0.59700985  0.98716119  0.72481787    -0.79200
C2154       C  0.73746515  0.02802296  0.69299054     0.96700
C2155       C  0.68510319  0.09506998  0.66516862     0.91600
O2156       O  0.65285709  0.06898072  0.66630175    -0.84500
O2157       O  0.60977029  0.09683687  0.77521627    -0.84000
C2158       C  0.70965107  0.23721829  0.80724141     0.95400
O2159       O  0.71246314  0.21651935  0.78732437    -0.73100
O2160       O  0.67999695  0.17079137  0.83998354    -0.76700
Al2161     Al  0.68002167  0.16672744  0.79170219     1.49000
C2162       C  0.65183794  0.14936611  0.85684176     0.90700
O2163       O  0.58383383  0.15269334  0.83373894    -0.82900
O2164       O  0.59813753  0.18097319  0.74960071    -0.76400
Al2165     Al  0.59936739  0.12729538  0.80456538     1.90100
O2166       O  0.61048028  0.20795600  0.81397784    -0.75500
O2167       O  0.66745729  0.20981512  0.74072233    -0.75400
O2168       O  0.67990857  0.23669153  0.80822468    -0.81000
O2169       O  0.67595191  0.16262903  0.74341171    -0.79200
O2170       O  0.63844703  0.16678157  0.79171131    -1.15400
O2171       O  0.66247487  0.11693613  0.79610640    -0.74600
C2172       C  0.63894577  0.09624619  0.77621332     0.96200
C2173       C  0.59009000  0.18494815  0.83490321     0.92600
Al2174     Al  0.63905474  0.20631373  0.77882995     1.55600
O2175       O  0.62410111  0.12375363  0.84272627    -0.79200
C2176       C  0.66926114  0.18404692  0.72659000     0.96700
C2177       C  0.57204926  0.14872926  0.74842621     0.91600
O2178       O  0.56929906  0.12571461  0.76936767    -0.84500
O2179       O  0.55748673  0.32057108  0.80810314    -0.84000
C2180       C  0.95781473  0.36118947  0.77632247     0.95400
O2181       O  0.95495227  0.33766289  0.79620217    -0.73100
O2182       O  0.48729080  0.32432495  0.74345222    -0.76700
Al2183     Al  0.48729009  0.32024275  0.79173955     1.49000
C2184       C  0.51544109  0.33108078  0.72657595     0.90700
O2185       O  0.58348463  0.40234919  0.74960130    -0.82900
O2186       O  0.56937502  0.41642024  0.83387218    -0.76400
Al2187     Al  0.56793588  0.36142384  0.77877604     1.90100
O2188       O  0.55701883  0.43106345  0.76953738    -0.75500
O2189       O  0.50005429  0.37601029  0.84280149    -0.75400
O2190       O  0.48759271  0.39041279  0.77535437    -0.81000
O2191       O  0.99138155  0.32024605  0.84002769    -0.79200
O2192       O  0.52892633  0.36188125  0.79173250    -1.15400
O2193       O  0.50473105  0.28792882  0.78727319    -0.74600
C2194       C  0.52826643  0.29079273  0.80713882     0.96200
C2195       C  0.57729853  0.42838738  0.74851656     0.92600
Al2196     Al  0.52844696  0.40087075  0.80468911     1.55600
O2197       O  0.54309122  0.33305425  0.74065736    -0.79200
C2198       C  0.99813907  0.34839385  0.85689100     0.96700
C2199       C  0.59542459  0.41024289  0.83495819     0.91600
O2200       O  0.59811472  0.38998021  0.81393408    -0.84500
O2201       O  0.76390579  0.44274096  0.80825791    -0.84000
C2202       C  0.90431244  0.04256989  0.77622237     0.95400
O2203       O  0.88361714  0.04537102  0.79615691    -0.73100
O2204       O  0.83791458  0.51295985  0.74348779    -0.76700
Al2205     Al  0.83383042  0.51296095  0.79177130     1.49000
C2206       C  0.81648269  0.48481099  0.72663632     0.90700
O2207       O  0.81974084  0.41677553  0.74972163    -0.82900
O2208       O  0.84803109  0.43103317  0.83382223    -0.76400
Al2209     Al  0.79435725  0.43232745  0.77890489     1.90100
O2210       O  0.87502362  0.44341244  0.76943708    -0.75500
O2211       O  0.87688700  0.50032672  0.84273545    -0.75400
O2212       O  0.90378887  0.51282927  0.77522070    -0.81000
O2213       O  0.82970682  0.00886936  0.84005423    -0.79200
O2214       O  0.83386030  0.47138146  0.79175117    -1.15400
O2215       O  0.78403665  0.49544867  0.78736799    -0.74600
C2216       C  0.76332501  0.47191511  0.80725756     0.96200
C2217       C  0.85199774  0.42301922  0.74853435     0.92600
Al2218     Al  0.87338930  0.47196220  0.80460688     1.55600
O2219       O  0.79084489  0.45708861  0.74075573    -0.79200
C2220       C  0.85112159  0.00216928  0.85687221     0.96700
C2221       C  0.81577355  0.40496599  0.83501727     0.91600
O2222       O  0.79275049  0.40224289  0.81410023    -0.84500
O2223       O  0.93041375  0.27598029  0.64153179    -0.84000
C2224       C  0.57084646  0.37584959  0.60957391     0.95400
O2225       O  0.55012573  0.37864352  0.62948066    -0.73100
O2226       O  0.00444901  0.34624413  0.57678586    -0.76700
Al2227     Al  0.50033354  0.34622633  0.62506871     1.49000
C2228       C  0.98303803  0.31809486  0.55992645     0.90700
O2229       O  0.98630076  0.25009142  0.58293426    -0.82900
O2230       O  0.51452802  0.26429663  0.66707451    -0.76400
Al2231     Al  0.96088017  0.26559757  0.61214872     1.90100
O2232       O  0.54156004  0.27671256  0.60270575    -0.75500
O2233       O  0.54336566  0.33356080  0.67604403    -0.75400
O2234       O  0.57030478  0.34610865  0.60855627    -0.81000
O2235       O  0.49620961  0.34212709  0.67335704    -0.79200
O2236       O  0.50037127  0.30465021  0.62503222    -1.15400
O2237       O  0.95053671  0.32869063  0.62065321    -0.74600
C2238       C  0.92984587  0.30516442  0.64055922     0.96200
C2239       C  0.51856564  0.25634716  0.58176650     0.92600
Al2240     Al  0.53989358  0.30522964  0.63789649     1.55600
O2241       O  0.95736523  0.29039018  0.57403158    -0.79200
C2242       C  0.51763641  0.33544802  0.69018109     0.96700
C2243       C  0.98228014  0.23821808  0.66824581     0.91600
O2244       O  0.95926700  0.23547873  0.64731022    -0.84500
O2245       O  0.83332762  0.29027160  0.75948635    -0.84000
C2246       C  0.84879605  0.35049868  0.64331987     0.95400
O2247       O  0.82064090  0.32909700  0.66019491    -0.73100
O2248       O  0.78827079  0.28347289  0.71294720    -0.76700
Al2249     Al  0.82067755  0.33325426  0.70847926     1.49000
C2250       C  0.79108427  0.26278090  0.69302618     0.90700
O2251       O  0.89025748  0.29201821  0.68622213    -0.82900
O2252       O  0.93148054  0.37432304  0.73067733    -0.76400
Al2253     Al  0.86169887  0.29371677  0.72138131     1.90100
O2254       O  0.91680716  0.34722543  0.66633800    -0.75500
O2255       O  0.89095720  0.40315797  0.72484793    -0.75400
O2256       O  0.87651492  0.37615511  0.65740871    -0.81000
O2257       O  0.83822336  0.38303559  0.70400396    -0.79200
O2258       O  0.86226879  0.33321261  0.70845056    -1.15400
O2259       O  0.82480448  0.33743991  0.75676201    -0.74600
C2260       C  0.83152534  0.31605012  0.77359533     0.96200
C2261       C  0.91059266  0.31498164  0.66523420     0.92600
Al2262     Al  0.90132514  0.37267239  0.69551815     1.55600
O2263       O  0.82082271  0.26329767  0.69204214    -0.79200
C2264       C  0.86177567  0.40373860  0.72387459     0.96700
C2265       C  0.92875133  0.35135656  0.75166778     0.91600
O2266       O  0.90264205  0.31911947  0.75056960    -0.84500
O2267       O  0.83415228  0.29073193  0.82405811    -0.84000
C2268       C  0.81878734  0.33563418  0.94024947     0.95400
O2269       O  0.84694606  0.34240154  0.92338471    -0.73100
O2270       O  0.87923114  0.32902387  0.87063215    -0.76700
Al2271     Al  0.84693563  0.34649048  0.87509937     1.49000
C2272       C  0.87632713  0.30548104  0.89051428     0.90700
O2273       O  0.77709952  0.23562746  0.89725533    -0.82900
O2274       O  0.73604504  0.27672405  0.85294677    -0.76400
Al2275     Al  0.80572004  0.26585265  0.86213344     1.90100
O2276       O  0.75073184  0.26440019  0.91727788    -0.75500
O2277       O  0.77673689  0.34616171  0.85875000    -0.75400
O2278       O  0.79116646  0.33372048  0.92616558    -0.81000
O2279       O  0.82950725  0.37881508  0.87956358    -0.79200
O2280       O  0.80527524  0.30485270  0.87510814    -1.15400
O2281       O  0.84283724  0.34649860  0.82681610    -0.74600
C2282       C  0.83604153  0.31833439  0.80996597     0.96200
C2283       C  0.75684456  0.23831092  0.91830246     0.92600
Al2284     Al  0.76627976  0.30532071  0.88808356     1.55600
O2285       O  0.84653937  0.27627074  0.89147263    -0.79200
C2286       C  0.80596316  0.37593618  0.85969726     0.96700
C2287       C  0.73872929  0.25647011  0.83190097     0.91600
O2288       O  0.76481189  0.25034290  0.83293804    -0.84500
O2289       O  0.89090522  0.98727127  0.97483307    -0.84000
C2290       C  0.79118679  0.02782472  0.94292907     0.95400
O2291       O  0.78831747  0.00428658  0.96279954    -0.73100
O2292       O  0.82070754  0.49092165  0.91011255    -0.76700
Al2293     Al  0.82067663  0.98688102  0.95840017     1.49000
C2294       C  0.84887600  0.49769891  0.89325823     0.90700
O2295       O  0.91684411  0.06897477  0.91621820    -0.82900
O2296       O  0.90270689  0.08308125  0.50050670    -0.76400
Al2297     Al  0.90132691  0.02808284  0.94544695     1.90100
O2298       O  0.89038834  0.09769800  0.93615768    -0.75500
O2299       O  0.83339619  0.04266930  0.50943071    -0.75400
O2300       O  0.82096597  0.05704439  0.94196293    -0.81000
O2301       O  0.82472921  0.98690642  0.50668997    -0.79200
O2302       O  0.86230274  0.02852792  0.95838781    -1.15400
O2303       O  0.83816197  0.45456774  0.95400728    -0.74600
C2304       C  0.86170362  0.45746844  0.97388974     0.96200
C2305       C  0.91065857  0.09501474  0.91512925     0.92600
Al2306     Al  0.86180285  0.06751538  0.97131323     1.55600
O2307       O  0.87649155  0.99964872  0.90736017    -0.79200
C2308       C  0.83146250  0.01505357  0.52354070     0.96700
C2309       C  0.92877739  0.07694051  0.50159216     0.91600
O2310       O  0.93150031  0.05669532  0.98057180    -0.84500
O2311       O  0.77645840  0.43008007  0.60865276    -0.84000
C2312       C  0.87628161  0.07050202  0.64052515     0.95400
O2313       O  0.87907773  0.04979547  0.62061124    -0.73100
O2314       O  0.84670083  0.50413554  0.67334036    -0.76700
Al2315     Al  0.84666394  0.00001080  0.62505663     1.49000
C2316       C  0.81855874  0.48271583  0.69022266     0.90700
O2317       O  0.75048444  0.48595068  0.66716998    -0.82900
O2318       O  0.76469281  0.01416586  0.58305060    -0.76400
Al2319     Al  0.76603719  0.46054433  0.63799377     1.90100
O2320       O  0.77711816  0.04120404  0.64740282    -0.75500
O2321       O  0.83397829  0.04301137  0.57405627    -0.75400
O2322       O  0.84653320  0.06995940  0.64154402    -0.81000
O2323       O  0.84255458  0.99587130  0.57676931    -0.79200
O2324       O  0.80507245  0.00003167  0.62509618    -1.15400
O2325       O  0.82917912  0.45023752  0.62951892    -0.74600
C2326       C  0.80565416  0.42952440  0.60963584     0.96200
C2327       C  0.75672420  0.01820264  0.66833090     0.92600
Al2328     Al  0.80564197  0.03954081  0.61221328     1.55600
O2329       O  0.79082445  0.45706915  0.67613691    -0.79200
C2330       C  0.83585875  0.01727841  0.55993345     0.96700
C2331       C  0.73864336  0.48191186  0.58187713     0.91600
O2332       O  0.73592487  0.45890054  0.60280823    -0.84500
O2333       O  0.94308686  0.26341322  0.94191598    -0.84000
C2334       C  0.54297004  0.40380085  0.97390157     0.95400
O2335       O  0.54578095  0.38309752  0.95399030    -0.73100
O2336       O  0.01334555  0.33739033  0.50666750    -0.76700
Al2337     Al  0.01335270  0.33330709  0.95838408     1.49000
C2338       C  0.98518018  0.31597461  0.52352294     0.90700
O2339       O  0.91719719  0.31927252  0.50052030    -0.82900
O2340       O  0.93143675  0.34752119  0.91634917    -0.76400
Al2341     Al  0.93270228  0.29386444  0.97130155     1.90100
O2342       O  0.94380621  0.37451843  0.98072207    -0.75500
O2343       O  0.00073349  0.37636809  0.90741390    -0.75400
O2344       O  0.01322380  0.40326125  0.97490516    -0.81000
O2345       O  0.50927231  0.32920656  0.91009628    -0.79200
O2346       O  0.97177067  0.33335016  0.95841777    -1.15400
O2347       O  0.99580362  0.28351287  0.96278365    -0.74600
C2348       C  0.97226823  0.26283174  0.94288601     0.96200
C2349       C  0.92344501  0.35152745  0.50167526     0.92600
Al2350     Al  0.97235932  0.37287201  0.94554578     1.55600
O2351       O  0.95747894  0.29031797  0.50941290    -0.79200
C2352       C  0.50258020  0.35062413  0.89327699     0.96700
C2353       C  0.90534476  0.31528237  0.91519446     0.91600
O2354       O  0.90259220  0.29227647  0.93614640    -0.84500
O2355       O  0.79077492  0.33303972  0.99073900    -0.84000
C2356       C  0.85092352  0.34839513  0.60691434     0.95400
O2357       O  0.82951748  0.32025971  0.59003585    -0.73100
O2358       O  0.78391941  0.28795094  0.53726790    -0.76700
Al2359     Al  0.83370683  0.32031765  0.54175331     1.49000
C2360       C  0.76321963  0.29076610  0.55718414     0.90700
O2361       O  0.79251462  0.38991638  0.56401804    -0.82900
O2362       O  0.87486773  0.43112621  0.51953081    -0.76400
Al2363     Al  0.79421425  0.36138136  0.52885500     1.90100
O2364       O  0.84773157  0.41646089  0.58388289    -0.75500
O2365       O  0.90365927  0.39054530  0.52537934    -0.75400
O2366       O  0.87660500  0.37611141  0.59283017    -0.81000
O2367       O  0.88348737  0.33781978  0.54624544    -0.79200
O2368       O  0.83369830  0.36191848  0.54178055    -1.15400
O2369       O  0.83791772  0.32445853  0.99346918    -0.74600
C2370       C  0.81653257  0.33118397  0.97662987     0.96200
C2371       C  0.81548222  0.41025542  0.58499002     0.92600
Al2372     Al  0.87317515  0.40094787  0.55470740     1.55600
O2373       O  0.76375983  0.32050760  0.55818156    -0.79200
C2374       C  0.90420457  0.36134878  0.52635615     0.96700
C2375       C  0.85189003  0.42841765  0.99856092     0.91600
O2376       O  0.81964339  0.40232544  0.49968180    -0.84500
O2377       O  0.66747665  0.95735159  0.49070043    -0.84000
C2378       C  0.65204003  0.00226044  0.10687843     0.95400
O2379       O  0.68022246  0.50903064  0.09002830    -0.73100
O2380       O  0.71252170  0.99564720  0.03730204    -0.76700
Al2381     Al  0.68021601  0.01310458  0.04173941     1.49000
C2382       C  0.70961514  0.97210422  0.05718630     0.90700
O2383       O  0.61038706  0.90223927  0.06388191    -0.82900
O2384       O  0.56934579  0.94331288  0.01956861    -0.76400
Al2385     Al  0.63902602  0.93246760  0.02877021     1.90100
O2386       O  0.58402132  0.93101794  0.08389690    -0.75500
O2387       O  0.61000424  0.01274697  0.02535630    -0.75400
O2388       O  0.62442137  0.00033344  0.09278000    -0.81000
O2389       O  0.66279102  0.54542526  0.04617444    -0.79200
O2390       O  0.63856449  0.97146300  0.04173762    -1.15400
O2391       O  0.67614555  0.01311223  0.49345641    -0.74600
C2392       C  0.66937208  0.98495568  0.47660528     0.96200
C2393       C  0.59013155  0.90492935  0.08492511     0.92600
Al2394     Al  0.59955882  0.97192131  0.05469819     1.55600
O2395       O  0.67983229  0.94288865  0.05813194    -0.79200
C2396       C  0.63923933  0.54253606  0.02631234     0.96700
C2397       C  0.57204375  0.92306694  0.49852499     0.91600
O2398       O  0.59813493  0.91695441  0.99955859    -0.84500
O2399       O  0.66670809  0.95692464  0.42611494    -0.84000
C2400       C  0.68214286  0.51717992  0.30996302     0.95400
O2401       O  0.65400094  0.49576083  0.32684429    -0.73100
O2402       O  0.62163480  0.95012189  0.37958716    -0.76700
Al2403     Al  0.65403985  0.49989648  0.37512706     1.49000
C2404       C  0.62444912  0.92944144  0.35965376     0.90700
O2405       O  0.72363138  0.95871911  0.35283291    -0.82900
O2406       O  0.76483575  0.54099841  0.39734391    -0.76400
Al2407     Al  0.69507107  0.96038830  0.38799424     1.90100
O2408       O  0.75021668  0.51394121  0.33300165    -0.75500
O2409       O  0.72428709  0.56981780  0.39150951    -0.75400
O2410       O  0.70987795  0.54282273  0.32405004    -0.81000
O2411       O  0.67155499  0.54967072  0.37066011    -0.79200
O2412       O  0.69563979  0.49987468  0.37508970    -1.15400
O2413       O  0.65815952  0.00407917  0.42340366    -0.74600
C2414       C  0.66488301  0.98268787  0.44023150     0.96200
C2415       C  0.74400288  0.98170765  0.33188272     0.92600
Al2416     Al  0.73468777  0.53935195  0.36217557     1.55600
O2417       O  0.65419307  0.92997007  0.35865457    -0.79200
C2418       C  0.69509579  0.57038025  0.39053377     0.96700
C2419       C  0.76212462  0.51800629  0.41829729     0.91600
O2420       O  0.73601809  0.98578023  0.41717059    -0.84500
O2421       O  0.50002385  0.62366584  0.09271963    -0.84000
C2422       C  0.51545625  0.68384749  0.47653198     0.95400
O2423       O  0.48730974  0.66243623  0.49341128    -0.73100
O2424       O  0.95497389  0.61682704  0.04617902    -0.76700
Al2425     Al  0.48734313  0.66660790  0.04169281     1.49000
C2426       C  0.95781097  0.59613964  0.02626994     0.90700
O2427       O  0.55697645  0.62542585  0.01948665    -0.82900
O2428       O  0.59816187  0.70774292  0.06392225    -0.76400
Al2429     Al  0.52840800  0.62711813  0.05462566     1.90100
O2430       O  0.58351011  0.68062180  0.99957589    -0.75500
O2431       O  0.55757927  0.73654159  0.05806143    -0.75400
O2432       O  0.54317595  0.70951099  0.49061622    -0.81000
O2433       O  0.50485094  0.71638227  0.03719740    -0.79200
O2434       O  0.52895110  0.66659639  0.04167626    -1.15400
O2435       O  0.99146294  0.67080980  0.08997530    -0.74600
C2436       C  0.99819545  0.64943536  0.10681884     0.96200
C2437       C  0.57731021  0.64838036  0.49849456     0.92600
Al2438     Al  0.56799359  0.70606427  0.02874332     1.55600
O2439       O  0.48755733  0.59667953  0.02528926    -0.79200
C2440       C  0.52837934  0.73709233  0.05708175     0.96700
C2441       C  0.59543987  0.68477310  0.08491093     0.91600
O2442       O  0.56933559  0.65253737  0.08381058    -0.84500
O2443       O  0.73705119  0.67948197  0.44191870    -0.84000
C2444       C  0.59657615  0.63854244  0.47385332     0.95400
O2445       O  0.61728158  0.66204830  0.45394415    -0.73100
O2446       O  0.66292030  0.67546517  0.00668973    -0.76700
Al2447     Al  0.66706694  0.67956510  0.45840189     1.49000
C2448       C  0.68433917  0.66878484  0.02352801     0.90700
O2449       O  0.68128706  0.59763333  0.00044104    -0.82900
O2450       O  0.65302516  0.58337208  0.41638398    -0.76400
Al2451     Al  0.70664071  0.63858804  0.47126223     1.90100
O2452       O  0.62599304  0.56886013  0.48075012    -0.75500
O2453       O  0.62413716  0.62368709  0.40735615    -0.75400
O2454       O  0.59714286  0.60935968  0.47486583    -0.81000
O2455       O  0.67119007  0.67957181  0.41012163    -0.79200
O2456       O  0.66711126  0.63799368  0.45839025    -1.15400
O2457       O  0.71685078  0.71199446  0.46284134    -0.74600
C2458       C  0.73757669  0.70921653  0.44293209     0.96200
C2459       C  0.64902858  0.57157018  0.00164530     0.92600
Al2460     Al  0.62761797  0.59893496  0.44553555     1.55600
O2461       O  0.71008397  0.66690975  0.00940823    -0.79200
C2462       C  0.64976924  0.65143057  0.39325319     0.96700
C2463       C  0.68529582  0.58965203  0.41518822     0.91600
O2464       O  0.70832066  0.61007923  0.43607510    -0.84500
O2465       O  0.95776889  0.66704775  0.25939172    -0.84000
C2466       C  0.00269533  0.65171848  0.14319136     0.95400
O2467       O  0.50945347  0.67987155  0.16004226    -0.73100
O2468       O  0.99604173  0.71212111  0.21279068    -0.76700
Al2469     Al  0.01354951  0.67986562  0.20832801     1.49000
C2470       C  0.97248587  0.70920187  0.19291918     0.90700
O2471       O  0.90267254  0.60998192  0.18622175    -0.82900
O2472       O  0.94380743  0.56897354  0.23049101    -0.76400
Al2473     Al  0.93289632  0.63861032  0.22132888     1.90100
O2474       O  0.93149828  0.58368285  0.16616435    -0.75500
O2475       O  0.01325519  0.60969359  0.22469306    -0.75400
O2476       O  0.00083341  0.62413011  0.15728472    -0.81000
O2477       O  0.54590474  0.66246514  0.20387033    -0.79200
O2478       O  0.97191931  0.63819811  0.20833998    -1.15400
O2479       O  0.01356580  0.67578063  0.25661122    -0.74600
C2480       C  0.98539716  0.66898271  0.27347505     0.96200
C2481       C  0.90538612  0.58976638  0.16515585     0.92600
Al2482     Al  0.97241469  0.59922706  0.19536035     1.55600
O2483       O  0.94327988  0.67941079  0.19197695    -0.79200
C2484       C  0.54302824  0.63892311  0.22374177     0.96700
C2485       C  0.92356028  0.57164808  0.25155856     0.91600
O2486       O  0.91742261  0.59771974  0.25053800    -0.84500
O2487       O  0.72412838  0.65392863  0.14148532    -0.84000
C2488       C  0.62449606  0.69458704  0.10957341     0.95400
O2489       O  0.62160390  0.67105001  0.12946107    -0.73100
O2490       O  0.65395575  0.65765286  0.07677745    -0.76700
Al2491     Al  0.65393017  0.65360023  0.12506615     1.49000
C2492       C  0.68211411  0.66440076  0.05992080     0.90700
O2493       O  0.75013932  0.73566220  0.08292568    -0.82900
O2494       O  0.73599459  0.74976001  0.16721697    -0.76400
Al2495     Al  0.73458285  0.69475937  0.11212929     1.90100
O2496       O  0.72371970  0.76441963  0.10286518    -0.75500
O2497       O  0.66665978  0.70938395  0.17608901    -0.75400
O2498       O  0.65428457  0.72379832  0.10861688    -0.81000
O2499       O  0.65799637  0.65362604  0.17335532    -0.79200
O2500       O  0.69557293  0.69523174  0.12506013    -1.15400
O2501       O  0.67136544  0.62126895  0.12066656    -0.74600
C2502       C  0.69491432  0.62414607  0.14052770     0.96200
C2503       C  0.74398381  0.76172029  0.08184294     0.92600
Al2504     Al  0.69510150  0.73423357  0.13799575     1.55600
O2505       O  0.70974618  0.66635788  0.07402398    -0.79200
C2506       C  0.66476889  0.68178872  0.19019873     0.96700
C2507       C  0.76204922  0.74359242  0.16830719     0.91600
O2508       O  0.76475562  0.72334166  0.14727893    -0.84500
O2509       O  0.54322718  0.70947681  0.42603586    -0.84000
C2510       C  0.98314072  0.66451660  0.30985244     0.95400
O2511       O  0.00454165  0.65780908  0.32668410    -0.73100
O2512       O  0.55012709  0.67120837  0.37945176    -0.76700
Al2513     Al  0.00034283  0.65366403  0.37496745     1.49000
C2514       C  0.57083110  0.69474820  0.35956540     0.90700
O2515       O  0.54141792  0.76444197  0.35275083    -0.82900
O2516       O  0.95907796  0.72319747  0.39726499    -0.76400
Al2517     Al  0.53976130  0.73429158  0.38791665     1.90100
O2518       O  0.98618906  0.73562804  0.33291163    -0.75500
O2519       O  0.93036342  0.65377258  0.39142157    -0.75400
O2520       O  0.95736662  0.66634030  0.32396691    -0.81000
O2521       O  0.95055977  0.62125552  0.37049222    -0.79200
O2522       O  0.00029516  0.69524391  0.37499949    -1.15400
O2523       O  0.49616761  0.65360643  0.42324995    -0.74600
C2524       C  0.51756751  0.68174854  0.44012487     0.96200
C2525       C  0.51843432  0.76172746  0.33178968     0.92600
Al2526     Al  0.96078904  0.69466979  0.36208925     1.55600
O2527       O  0.57025688  0.72392705  0.35858368    -0.79200
C2528       C  0.92985498  0.62404407  0.39042230     0.96700
C2529       C  0.98205948  0.74355587  0.41822083     0.91600
O2530       O  0.51431213  0.74977964  0.41709178    -0.84500
O2531       O  0.62404111  0.49969780  0.15736706    -0.84000
C2532       C  0.68422945  0.51510423  0.27354953     0.95400
O2533       O  0.66281461  0.48696823  0.25667467    -0.73100
O2534       O  0.61718573  0.95462142  0.20390377    -0.76700
Al2535     Al  0.66699038  0.48700726  0.20839331     1.49000
C2536       C  0.59648681  0.95742777  0.22382638     0.90700
O2537       O  0.62577125  0.55658222  0.23064075    -0.82900
O2538       O  0.70811633  0.59777803  0.18610879    -0.76400
Al2539     Al  0.62746911  0.52804060  0.19548297     1.90100
O2540       O  0.68101267  0.58317570  0.25045314    -0.75500
O2541       O  0.73693118  0.55722311  0.19199440    -0.75400
O2542       O  0.70988256  0.54283790  0.25945750    -0.81000
O2543       O  0.71676984  0.50451289  0.21288741    -0.79200
O2544       O  0.66696696  0.52859883  0.20840353    -1.15400
O2545       O  0.67117195  0.99112099  0.16010782    -0.74600
C2546       C  0.64978205  0.99783174  0.14326038     0.96200
C2547       C  0.64876104  0.57696014  0.25157743     0.92600
Al2548     Al  0.70644442  0.56763844  0.22130502     1.55600
O2549       O  0.59702941  0.48716497  0.22482209    -0.79200
C2550       C  0.73748696  0.52803349  0.19299292     0.96700
C2551       C  0.68511767  0.59507624  0.16516764     0.91600
O2552       O  0.65287147  0.56898550  0.16630459    -0.84500
O2553       O  0.60978583  0.59684841  0.27521078    -0.84000
C2554       C  0.70965323  0.73723060  0.30723099     0.95400
O2555       O  0.71246673  0.71653567  0.28731075    -0.73100
O2556       O  0.68001009  0.67080763  0.33997535    -0.76700
Al2557     Al  0.68003276  0.66674394  0.29169258     1.49000
C2558       C  0.65185366  0.64937790  0.35683430     0.90700
O2559       O  0.58384402  0.65270140  0.33373576    -0.82900
O2560       O  0.59814062  0.68097810  0.24959557    -0.76400
Al2561     Al  0.59937989  0.62730510  0.30456030     1.90100
O2562       O  0.61048177  0.70796271  0.31397214    -0.75500
O2563       O  0.66745893  0.70982571  0.24071182    -0.75400
O2564       O  0.67991056  0.73670331  0.30821570    -0.81000
O2565       O  0.67595992  0.66264353  0.24340235    -0.79200
O2566       O  0.63845568  0.66679305  0.29170416    -1.15400
O2567       O  0.66249291  0.61695429  0.29609801    -0.74600
C2568       C  0.63896343  0.59626064  0.27620808     0.96200
C2569       C  0.59009478  0.68495464  0.33489909     0.92600
Al2570     Al  0.63905736  0.70632262  0.27882241     1.55600
O2571       O  0.62411667  0.62376550  0.34271869    -0.79200
C2572       C  0.66926567  0.68405832  0.22658008     0.96700
C2573       C  0.57205550  0.64873361  0.24842245     0.91600
O2574       O  0.56930823  0.62572027  0.26936471    -0.84500
O2575       O  0.55747446  0.82057460  0.30810886    -0.84000
C2576       C  0.95780660  0.86119204  0.27630188     0.95400
O2577       O  0.95493890  0.83766065  0.29617935    -0.73100
O2578       O  0.48728995  0.82432467  0.24343971    -0.76700
Al2579     Al  0.48727775  0.82024119  0.29172780     1.49000
C2580       C  0.51544373  0.83107904  0.22656869     0.90700
O2581       O  0.58347046  0.90234843  0.24960005    -0.82900
O2582       O  0.56935167  0.91641641  0.33387806    -0.76400
Al2583     Al  0.56792524  0.86142603  0.27877765     1.90100
O2584       O  0.55700922  0.93106565  0.26954027    -0.75500
O2585       O  0.50002592  0.87600383  0.34279052    -0.75400
O2586       O  0.48758359  0.89041491  0.27534117    -0.81000
O2587       O  0.99135620  0.82024108  0.34001640    -0.79200
O2588       O  0.52891262  0.86188068  0.29172802    -1.15400
O2589       O  0.50472189  0.78792836  0.28727257    -0.74600
C2590       C  0.52825589  0.79079485  0.30714275     0.96200
C2591       C  0.57728477  0.92838665  0.24851642     0.92600
Al2592     Al  0.52842975  0.90086899  0.30468534     1.55600
O2593       O  0.54308970  0.83305275  0.24065696    -0.79200
C2594       C  0.99811050  0.84838702  0.35688019     0.96700
C2595       C  0.59540576  0.91024528  0.33496193     0.91600
O2596       O  0.59809973  0.88998711  0.31393587    -0.84500
O2597       O  0.76389398  0.94274334  0.30825914    -0.84000
C2598       C  0.90432406  0.54256898  0.27622440     0.95400
O2599       O  0.88362960  0.54537121  0.29616099    -0.73100
O2600       O  0.83790041  0.01295399  0.24348377    -0.76700
Al2601     Al  0.83381871  0.01296007  0.29176755     1.49000
C2602       C  0.81646720  0.98480516  0.22663408     0.90700
O2603       O  0.81972577  0.91677081  0.24972483    -0.82900
O2604       O  0.84802500  0.93103303  0.33381547    -0.76400
Al2605     Al  0.79434406  0.93232620  0.27890697     1.90100
O2606       O  0.87501294  0.94341597  0.26943064    -0.75500
O2607       O  0.87687522  0.00032506  0.34273447    -0.75400
O2608       O  0.90377765  0.01283024  0.27521832    -0.81000
O2609       O  0.82971585  0.50886564  0.34005797    -0.79200
O2610       O  0.83384853  0.97138096  0.29174985    -1.15400
O2611       O  0.78402505  0.99544903  0.28736456    -0.74600
C2612       C  0.76331366  0.97191847  0.30725495     0.96200
C2613       C  0.85198357  0.92301816  0.24853218     0.92600
Al2614     Al  0.87337893  0.97196297  0.30460304     1.55600
O2615       O  0.79082938  0.95708293  0.24075562    -0.79200
C2616       C  0.85113018  0.50216275  0.35687425     0.96700
C2617       C  0.81576729  0.90496611  0.33501405     0.91600
O2618       O  0.79273984  0.90224520  0.31410393    -0.84500
O2619       O  0.93041788  0.77599655  0.14152211    -0.84000
C2620       C  0.57085282  0.87584157  0.10956017     0.95400
O2621       O  0.55013930  0.87863834  0.12947477    -0.73100
O2622       O  0.00445962  0.84624805  0.07677738    -0.76700
Al2623     Al  0.50034632  0.84623051  0.12506047     1.49000
C2624       C  0.98304288  0.81810010  0.05991861     0.90700
O2625       O  0.98628922  0.75008089  0.08292918    -0.82900
O2626       O  0.51452655  0.76428590  0.16705687    -0.76400
Al2627     Al  0.96087779  0.76560124  0.11214261     1.90100
O2628       O  0.54155332  0.77670480  0.10268859    -0.75500
O2629       O  0.54336930  0.83354883  0.17603687    -0.75400
O2630       O  0.57030835  0.84610025  0.10854165    -0.81000
O2631       O  0.49622192  0.84212991  0.17334767    -0.79200
O2632       O  0.50037407  0.80464932  0.12502291    -1.15400
O2633       O  0.95055180  0.82870918  0.12064442    -0.74600
C2634       C  0.92985353  0.80518275  0.14054601     0.96200
C2635       C  0.51855340  0.75633447  0.08175602     0.92600
Al2636     Al  0.53989391  0.80522089  0.13788276     1.55600
O2637       O  0.95737023  0.79039618  0.07402445    -0.79200
C2638       C  0.51764284  0.83544454  0.19017295     0.96700
C2639       C  0.98227608  0.73821283  0.16823493     0.91600
O2640       O  0.95925874  0.73548120  0.14730795    -0.84500
O2641       O  0.83332359  0.79026879  0.25946787    -0.84000
C2642       C  0.84877949  0.85050740  0.14331020     0.95400
O2643       O  0.82062612  0.82910322  0.16018508    -0.73100
O2644       O  0.78826563  0.78347135  0.21293205    -0.76700
Al2645     Al  0.82066616  0.83325428  0.20846952     1.49000
C2646       C  0.79108351  0.76278498  0.19300608     0.90700
O2647       O  0.89025780  0.79203408  0.18620085    -0.82900
O2648       O  0.93147463  0.87433155  0.23065753    -0.76400
Al2649     Al  0.86169633  0.79372385  0.22136009     1.90100
O2650       O  0.91679979  0.84724031  0.16631516    -0.75500
O2651       O  0.89094372  0.90316101  0.22483855    -0.75400
O2652       O  0.87649764  0.87616527  0.15739872    -0.81000
O2653       O  0.83820610  0.88303491  0.20400134    -0.79200
O2654       O  0.86226059  0.83321834  0.20843466    -1.15400
O2655       O  0.82479577  0.83743416  0.25675216    -0.74600
C2656       C  0.83151979  0.81604514  0.27358138     0.96200
C2657       C  0.91059213  0.81499833  0.16521369     0.92600
Al2658     Al  0.90131400  0.87268137  0.19550238     1.55600
O2659       O  0.82082319  0.76330616  0.19201942    -0.79200
C2660       C  0.86176053  0.90373846  0.22387050     0.96700
C2661       C  0.92874525  0.85136251  0.25164654     0.91600
O2662       O  0.90263685  0.81912662  0.25054729    -0.84500
O2663       O  0.83414862  0.79072474  0.32404397    -0.84000
C2664       C  0.81879374  0.83563878  0.44023749     0.95400
O2665       O  0.84695070  0.84240055  0.42337234    -0.73100
O2666       O  0.87922580  0.82901142  0.37061820    -0.76700
Al2667     Al  0.84693740  0.84648554  0.37508567     1.49000
C2668       C  0.87631797  0.80547041  0.39050473     0.90700
O2669       O  0.77709275  0.73562309  0.39724137    -0.82900
O2670       O  0.73604337  0.77672343  0.35294443    -0.76400
Al2671     Al  0.80571489  0.76584750  0.36212026     1.90100
O2672       O  0.75073900  0.76440454  0.41727497    -0.75500
O2673       O  0.77673760  0.84616006  0.35874322    -0.75400
O2674       O  0.79117385  0.83372564  0.42615345    -0.81000
O2675       O  0.82951321  0.87881347  0.37954880    -0.79200
O2676       O  0.80527522  0.80485013  0.37509704    -1.15400
O2677       O  0.84283642  0.84649211  0.32680271    -0.74600
C2678       C  0.83603845  0.81832674  0.30995204     0.96200
C2679       C  0.75684737  0.73831178  0.41829513     0.92600
Al2680     Al  0.76628289  0.80532161  0.38807705     1.55600
O2681       O  0.84653089  0.77625999  0.39146051    -0.79200
C2682       C  0.80596436  0.87593483  0.35968899     0.96700
C2683       C  0.73872845  0.75647509  0.33189315     0.91600
O2684       O  0.76481006  0.75034636  0.33292551    -0.84500
O2685       O  0.89091579  0.48725694  0.47483090    -0.84000
C2686       C  0.79119573  0.52780929  0.44293181     0.95400
O2687       O  0.78832634  0.50427023  0.46280202    -0.73100
O2688       O  0.82070384  0.99094199  0.41011128    -0.76700
Al2689     Al  0.82068439  0.48686365  0.45840178     1.49000
C2690       C  0.84887258  0.99771712  0.39325783     0.90700
O2691       O  0.91684698  0.56895500  0.41620495    -0.82900
O2692       O  0.90271502  0.58306284  0.00049937    -0.76400
Al2693     Al  0.90133377  0.52806496  0.44543986     1.90100
O2694       O  0.89039552  0.59767935  0.43615123    -0.75500
O2695       O  0.83340736  0.54265644  0.00942738    -0.75400
O2696       O  0.82097506  0.55702719  0.44196216    -0.81000
O2697       O  0.82474141  0.48689384  0.00669200    -0.79200
O2698       O  0.86231060  0.52851053  0.45838445    -1.15400
O2699       O  0.83815300  0.95458459  0.45400468    -0.74600
C2700       C  0.86169425  0.95748286  0.47388763     0.96200
C2701       C  0.91066155  0.59499592  0.41511876     0.92600
Al2702     Al  0.86181210  0.56749877  0.47130863     1.55600
O2703       O  0.87649321  0.49962438  0.40735913    -0.79200
C2704       C  0.83147484  0.51504145  0.02354004     0.96700
C2705       C  0.92878544  0.57692367  0.00158321     0.91600
O2706       O  0.93151112  0.55668182  0.48056017    -0.84500
O2707       O  0.77643975  0.93007735  0.10864621    -0.84000
C2708       C  0.87629576  0.57050413  0.14051946     0.95400
O2709       O  0.87909253  0.54979730  0.12060567    -0.73100
O2710       O  0.84668236  0.00412702  0.17333807    -0.76700
Al2711     Al  0.84668152  0.50001414  0.12505826     1.49000
C2712       C  0.81853923  0.98270700  0.19022033     0.90700
O2713       O  0.75046428  0.98594312  0.16716690    -0.82900
O2714       O  0.76470665  0.51416456  0.08305015    -0.76400
Al2715     Al  0.76601877  0.96053990  0.13798994     1.90100
O2716       O  0.77713550  0.54120946  0.14740047    -0.75500
O2717       O  0.83399092  0.54300617  0.07405184    -0.75400
O2718       O  0.84654883  0.56996270  0.14153686    -0.81000
O2719       O  0.84257054  0.49586818  0.07677155    -0.79200
O2720       O  0.80508948  0.50003446  0.12509660    -1.15400
O2721       O  0.82916013  0.95023346  0.12951163    -0.74600
C2722       C  0.80563517  0.92952217  0.10962692     0.96200
C2723       C  0.75674378  0.51820997  0.16833192     0.92600
Al2724     Al  0.80565713  0.53954170  0.11220977     1.55600
O2725       O  0.79080474  0.95706236  0.17613432    -0.79200
C2726       C  0.83587243  0.51727315  0.05993269     0.96700
C2727       C  0.73863012  0.98191286  0.08187357     0.91600
O2728       O  0.73590920  0.95889948  0.10280350    -0.84500
O2729       O  0.94307169  0.76340640  0.44191595    -0.84000
C2730       C  0.54296017  0.90380112  0.47388380     0.95400
O2731       O  0.54576620  0.88309607  0.45397075    -0.73100
O2732       O  0.01333886  0.83739432  0.00665452    -0.76700
Al2733     Al  0.01333685  0.83330576  0.45837141     1.49000
C2734       C  0.98517681  0.81598089  0.02351468     0.90700
O2735       O  0.91718239  0.81927444  0.00051563    -0.82900
O2736       O  0.93141525  0.84751716  0.41635123    -0.76400
Al2737     Al  0.93268894  0.79386342  0.47129880     1.90100
O2738       O  0.94379918  0.87452221  0.48072184    -0.75500
O2739       O  0.00070701  0.87636151  0.40740308    -0.75400
O2740       O  0.01321437  0.90326220  0.47489257    -0.81000
O2741       O  0.50924568  0.82919931  0.41008432    -0.79200
O2742       O  0.97175537  0.83334885  0.45841148    -1.15400
O2743       O  0.99579131  0.78351230  0.46277682    -0.74600
C2744       C  0.97225457  0.76282593  0.44288444     0.96200
C2745       C  0.92343562  0.85153190  0.00167327     0.92600
Al2746     Al  0.97234293  0.87287053  0.44554050     1.55600
O2747       O  0.95746982  0.79032519  0.00940984    -0.79200
C2748       C  0.50255191  0.85061760  0.39326582     0.96700
C2749       C  0.90532929  0.81527578  0.41519174     0.91600
O2750       O  0.90257851  0.79226939  0.43614235    -0.84500
O2751       O  0.79077919  0.83305278  0.49072253    -0.84000
C2752       C  0.85090792  0.84840447  0.10690512     0.95400
O2753       O  0.82950394  0.82026805  0.09002622    -0.73100
O2754       O  0.78391664  0.78795510  0.03724879    -0.76700
Al2755     Al  0.83370183  0.82032642  0.04174447     1.49000
C2756       C  0.76321185  0.79076419  0.05716280     0.90700
O2757       O  0.79249602  0.88991156  0.06400959    -0.82900
O2758       O  0.87485924  0.93113275  0.01951959    -0.76400
Al2759     Al  0.79420501  0.86138504  0.02884181     1.90100
O2760       O  0.84771631  0.91646871  0.08386796    -0.75500
O2761       O  0.90365279  0.89055369  0.02537465    -0.75400
O2762       O  0.87658976  0.87612136  0.09282263    -0.81000
O2763       O  0.88348169  0.83783116  0.04624630    -0.79200
O2764       O  0.83368968  0.86192554  0.04176954    -1.15400
O2765       O  0.83792094  0.82446900  0.49346122    -0.74600
C2766       C  0.81653804  0.83119425  0.47661810     0.96200
C2767       C  0.81546513  0.91025628  0.08497890     0.92600
Al2768     Al  0.87316423  0.90095618  0.05469769     1.55600
O2769       O  0.76374845  0.82050403  0.05816135    -0.79200
C2770       C  0.90419832  0.86135677  0.02635518     0.96700
C2771       C  0.85187934  0.92842738  0.49855328     0.91600
O2772       O  0.81963300  0.90233610  0.99967510    -0.84500
O2773       O  0.66747669  0.95735170  0.99070032    -0.84000
C2774       C  0.65204081  0.00226058  0.60687842     0.95400
O2775       O  0.68022235  0.50903056  0.59002832    -0.73100
O2776       O  0.71252173  0.99564721  0.53730212    -0.76700
Al2777     Al  0.68021602  0.01310463  0.54173944     1.49000
C2778       C  0.70961529  0.97210446  0.55718621     0.90700
O2779       O  0.61038697  0.90223935  0.56388206    -0.82900
O2780       O  0.56934578  0.94331298  0.51956863    -0.76400
Al2781     Al  0.63902610  0.93246770  0.52877020     1.90100
O2782       O  0.58402123  0.93101813  0.58389688    -0.75500
O2783       O  0.61000426  0.01274700  0.52535633    -0.75400
O2784       O  0.62442116  0.00033335  0.59278000    -0.81000
O2785       O  0.66279091  0.54542528  0.54617448    -0.79200
O2786       O  0.63856445  0.97146299  0.54173765    -1.15400
O2787       O  0.67614559  0.01311237  0.99345645    -0.74600
C2788       C  0.66937203  0.98495485  0.97660526     0.96200
C2789       C  0.59013204  0.90492881  0.58492470     0.92600
Al2790     Al  0.59955884  0.97192128  0.55469823     1.55600
O2791       O  0.67983222  0.94288861  0.55813194    -0.79200
C2792       C  0.63923920  0.54253596  0.52631238     0.96700
C2793       C  0.57204353  0.92306697  0.99852504     0.91600
O2794       O  0.59813488  0.91695448  0.49955860    -0.84500
O2795       O  0.66670808  0.95692443  0.92611487    -0.84000
C2796       C  0.68214287  0.51718003  0.80996303     0.95400
O2797       O  0.65400087  0.49576085  0.82684429    -0.73100
O2798       O  0.62163477  0.95012199  0.87958729    -0.76700
Al2799     Al  0.65403985  0.49989649  0.87512714     1.49000
C2800       C  0.62444955  0.92944120  0.85965348     0.90700
O2801       O  0.72363126  0.95871888  0.85283310    -0.82900
O2802       O  0.76483581  0.54099861  0.89734369    -0.76400
Al2803     Al  0.69507113  0.96038832  0.88799425     1.90100
O2804       O  0.75021659  0.51394128  0.83300155    -0.75500
O2805       O  0.72428704  0.56981773  0.89150951    -0.75400
O2806       O  0.70987790  0.54282279  0.82405002    -0.81000
O2807       O  0.67155492  0.54967072  0.87066012    -0.79200
O2808       O  0.69563974  0.49987464  0.87508970    -1.15400
O2809       O  0.65815955  0.00407900  0.92340376    -0.74600
C2810       C  0.66488290  0.98268855  0.94023149     0.96200
C2811       C  0.74400343  0.98170856  0.83188238     0.92600
Al2812     Al  0.73468777  0.53935194  0.86217554     1.55600
O2813       O  0.65419293  0.92997009  0.85865462    -0.79200
C2814       C  0.69509585  0.57038038  0.89053386     0.96700
C2815       C  0.76212410  0.51800537  0.91829756     0.91600
O2816       O  0.73601789  0.98577998  0.91717070    -0.84500
O2817       O  0.50002376  0.62366598  0.59271967    -0.84000
C2818       C  0.51545626  0.68384745  0.97653197     0.95400
O2819       O  0.48730969  0.66243622  0.99341128    -0.73100
O2820       O  0.95497393  0.61682694  0.54617880    -0.76700
Al2821     Al  0.48734316  0.66660794  0.54169285     1.49000
C2822       C  0.95781049  0.59614005  0.52627033     0.90700
O2823       O  0.55697639  0.62542581  0.51948666    -0.82900
O2824       O  0.59816184  0.70774290  0.56392231    -0.76400
Al2825     Al  0.52840794  0.62711816  0.55462567     1.90100
O2826       O  0.58351011  0.68062176  0.49957587    -0.75500
O2827       O  0.55757933  0.73654156  0.55806147    -0.75400
O2828       O  0.54317593  0.70951089  0.99061616    -0.81000
O2829       O  0.50485094  0.71638231  0.53719751    -0.79200
O2830       O  0.52895111  0.66659645  0.54167628    -1.15400
O2831       O  0.99146298  0.67080995  0.58997525    -0.74600
C2832       C  0.99819546  0.64943498  0.60681883     0.96200
C2833       C  0.57731012  0.64838007  0.99849465     0.92600
Al2834     Al  0.56799362  0.70606430  0.52874336     1.55600
O2835       O  0.48755736  0.59667952  0.52528926    -0.79200
C2836       C  0.52837929  0.73709239  0.55708163     0.96700
C2837       C  0.59544003  0.68477333  0.58491083     0.91600
O2838       O  0.56933549  0.65253733  0.58381058    -0.84500
O2839       O  0.73705121  0.67948215  0.94191877    -0.84000
C2840       C  0.59657625  0.63854268  0.97385323     0.95400
O2841       O  0.61728164  0.66204827  0.95394420    -0.73100
O2842       O  0.66292034  0.67546512  0.50668977    -0.76700
Al2843     Al  0.66706699  0.67956513  0.95840188     1.49000
C2844       C  0.68433877  0.66878483  0.52352800     0.90700
O2845       O  0.68128697  0.59763321  0.50044095    -0.82900
O2846       O  0.65302526  0.58337219  0.91638399    -0.76400
Al2847     Al  0.70664075  0.63858804  0.97126222     1.90100
O2848       O  0.62599313  0.56886015  0.98075010    -0.75500
O2849       O  0.62413709  0.62368703  0.90735620    -0.75400
O2850       O  0.59714295  0.60935961  0.97486580    -0.81000
O2851       O  0.67118999  0.67957174  0.91012154    -0.79200
O2852       O  0.66711132  0.63799370  0.95839020    -1.15400
O2853       O  0.71685074  0.71199456  0.96284140    -0.74600
C2854       C  0.73757689  0.70921615  0.94293185     0.96200
C2855       C  0.64902854  0.57157019  0.50164526     0.92600
Al2856     Al  0.62761803  0.59893500  0.94553548     1.55600
O2857       O  0.71008400  0.66690967  0.50940827    -0.79200
C2858       C  0.64976969  0.65143099  0.89325320     0.96700
C2859       C  0.68529584  0.58965199  0.91518813     0.91600
O2860       O  0.70832074  0.61007926  0.93607520    -0.84500
O2861       O  0.95776880  0.66704774  0.75939165    -0.84000
C2862       C  0.00269536  0.65171888  0.64319137     0.95400
O2863       O  0.50945343  0.67987141  0.66004224    -0.73100
O2864       O  0.99604189  0.71212122  0.71279079    -0.76700
Al2865     Al  0.01354946  0.67986563  0.70832801     1.49000
C2866       C  0.97248499  0.70920143  0.69291880     0.90700
O2867       O  0.90267259  0.60998175  0.68622159    -0.82900
O2868       O  0.94380737  0.56897353  0.73049109    -0.76400
Al2869     Al  0.93289631  0.63861033  0.72132887     1.90100
O2870       O  0.93149856  0.58368284  0.66616433    -0.75500
O2871       O  0.01325524  0.60969358  0.72469316    -0.75400
O2872       O  0.00083348  0.62413003  0.65728475    -0.81000
O2873       O  0.54590478  0.66246508  0.70387034    -0.79200
O2874       O  0.97191928  0.63819811  0.70833996    -1.15400
O2875       O  0.01356572  0.67578063  0.75661125    -0.74600
C2876       C  0.98539756  0.66898273  0.77347500     0.96200
C2877       C  0.90538569  0.58976685  0.66515622     0.92600
Al2878     Al  0.97241474  0.59922710  0.69536035     1.55600
O2879       O  0.94328007  0.67941099  0.69197696    -0.79200
C2880       C  0.54302842  0.63892344  0.72374163     0.96700
C2881       C  0.92356060  0.57164781  0.75155833     0.91600
O2882       O  0.91742263  0.59771989  0.75053803    -0.84500
O2883       O  0.72412829  0.65392863  0.64148530    -0.84000
C2884       C  0.62449597  0.69458682  0.60957348     0.95400
O2885       O  0.62160391  0.67105013  0.62946111    -0.73100
O2886       O  0.65395562  0.65765279  0.57677751    -0.76700
Al2887     Al  0.65393018  0.65360020  0.62506619     1.49000
C2888       C  0.68211441  0.66440067  0.55992082     0.90700
O2889       O  0.75013924  0.73566233  0.58292562    -0.82900
O2890       O  0.73599456  0.74976002  0.66721692    -0.76400
Al2891     Al  0.73458287  0.69475934  0.61212928     1.90100
O2892       O  0.72371968  0.76441972  0.60286522    -0.75500
O2893       O  0.66665986  0.70938407  0.67608900    -0.75400
O2894       O  0.65428459  0.72379838  0.60861689    -0.81000
O2895       O  0.65799635  0.65362612  0.67335539    -0.79200
O2896       O  0.69557293  0.69523177  0.62506016    -1.15400
O2897       O  0.67136534  0.62126888  0.62066658    -0.74600
C2898       C  0.69491442  0.62414614  0.64052772     0.96200
C2899       C  0.74398402  0.76171988  0.58184282     0.92600
Al2900     Al  0.69510154  0.73423356  0.63799578     1.55600
O2901       O  0.70974604  0.66635780  0.57402393    -0.79200
C2902       C  0.66476887  0.68178843  0.69019875     0.96700
C2903       C  0.76204933  0.74359235  0.66830716     0.91600
O2904       O  0.76475560  0.72334163  0.64727894    -0.84500
O2905       O  0.54322716  0.70947681  0.92603589    -0.84000
C2906       C  0.98314040  0.66451676  0.80985242     0.95400
O2907       O  0.00454171  0.65780912  0.82668411    -0.73100
O2908       O  0.55012693  0.67120829  0.87945180    -0.76700
Al2909     Al  0.00034284  0.65366400  0.87496735     1.49000
C2910       C  0.57083131  0.69474860  0.85956517     0.90700
O2911       O  0.54141805  0.76444202  0.85275086    -0.82900
O2912       O  0.95907791  0.72319750  0.89726506    -0.76400
Al2913     Al  0.53976126  0.73429159  0.88791665     1.90100
O2914       O  0.98618916  0.73562812  0.83291171    -0.75500
O2915       O  0.93036350  0.65377268  0.89142156    -0.75400
O2916       O  0.95736670  0.66634037  0.82396682    -0.81000
O2917       O  0.95055969  0.62125544  0.87049216    -0.79200
O2918       O  0.00029512  0.69524388  0.87499948    -1.15400
O2919       O  0.49616758  0.65360645  0.92324991    -0.74600
C2920       C  0.51756745  0.68174846  0.94012486     0.96200
C2921       C  0.51843396  0.76172725  0.83178961     0.92600
Al2922     Al  0.96078903  0.69466979  0.86208929     1.55600
O2923       O  0.57025696  0.72392700  0.85858373    -0.79200
C2924       C  0.92985502  0.62404390  0.89042221     0.96700
C2925       C  0.98205961  0.74355588  0.91822082     0.91600
O2926       O  0.51431237  0.74977979  0.91709183    -0.84500
O2927       O  0.62404114  0.49969775  0.65736707    -0.84000
C2928       C  0.68422944  0.51510421  0.77354953     0.95400
O2929       O  0.66281465  0.48696827  0.75667467    -0.73100
O2930       O  0.61718564  0.95462145  0.70390399    -0.76700
Al2931     Al  0.66699041  0.48700724  0.70839331     1.49000
C2932       C  0.59648717  0.95742713  0.72382599     0.90700
O2933       O  0.62577122  0.55658223  0.73064065    -0.82900
O2934       O  0.70811641  0.59777813  0.68610879    -0.76400
Al2935     Al  0.62746914  0.52804060  0.69548296     1.90100
O2936       O  0.68101256  0.58317572  0.75045312    -0.75500
O2937       O  0.73693124  0.55722347  0.69199441    -0.75400
O2938       O  0.70988260  0.54283801  0.75945754    -0.81000
O2939       O  0.71677008  0.50451318  0.71288730    -0.79200
O2940       O  0.66696707  0.52859892  0.70840360    -1.15400
O2941       O  0.67117211  0.99112095  0.66010786    -0.74600
C2942       C  0.64978142  0.99783183  0.64326040     0.96200
C2943       C  0.64876153  0.57696035  0.75157756     0.92600
Al2944     Al  0.70644447  0.56763848  0.72130505     1.55600
O2945       O  0.59702945  0.48716505  0.72482211    -0.79200
C2946       C  0.73748665  0.52803254  0.69299331     0.96700
C2947       C  0.68511758  0.59507622  0.66516759     0.91600
O2948       O  0.65287154  0.56898556  0.66630457    -0.84500
O2949       O  0.60978591  0.59684844  0.77521077    -0.84000
C2950       C  0.70965333  0.73723065  0.80723097     0.95400
O2951       O  0.71246671  0.71653567  0.78731083    -0.73100
O2952       O  0.68001020  0.67080770  0.83997535    -0.76700
Al2953     Al  0.68003273  0.66674395  0.79169257     1.49000
C2954       C  0.65185327  0.64937750  0.85683429     0.90700
O2955       O  0.58384408  0.65270149  0.83373573    -0.82900
O2956       O  0.59814074  0.68097820  0.74959556    -0.76400
Al2957     Al  0.59937989  0.62730511  0.80456030     1.90100
O2958       O  0.61048188  0.70796276  0.81397205    -0.75500
O2959       O  0.66745894  0.70982567  0.74071179    -0.75400
O2960       O  0.67991053  0.73670333  0.80821575    -0.81000
O2961       O  0.67595998  0.66264353  0.74340237    -0.79200
O2962       O  0.63845568  0.66679304  0.79170414    -1.15400
O2963       O  0.66249301  0.61695436  0.79609799    -0.74600
C2964       C  0.63896298  0.59626048  0.77620788     0.96200
C2965       C  0.59009453  0.68495416  0.83489927     0.92600
Al2966     Al  0.63905733  0.70632258  0.77882242     1.55600
O2967       O  0.62411682  0.62376566  0.84271872    -0.79200
C2968       C  0.66926579  0.68405871  0.72658008     0.96700
C2969       C  0.57205529  0.64873327  0.74842259     0.91600
O2970       O  0.56930829  0.62572038  0.76936472    -0.84500
O2971       O  0.55747442  0.82057449  0.80810890    -0.84000
C2972       C  0.95780643  0.86119171  0.77630198     0.95400
O2973       O  0.95493894  0.83766070  0.79617929    -0.73100
O2974       O  0.48729010  0.82432466  0.74343970    -0.76700
Al2975     Al  0.48727781  0.82024121  0.79172784     1.49000
C2976       C  0.51544336  0.83107886  0.72656869     0.90700
O2977       O  0.58347053  0.90234814  0.74960001    -0.82900
O2978       O  0.56935185  0.91641638  0.83387802    -0.76400
Al2979     Al  0.56792526  0.86142605  0.77877768     1.90100
O2980       O  0.55700939  0.93106551  0.76954014    -0.75500
O2981       O  0.50002589  0.87600344  0.84279055    -0.75400
O2982       O  0.48758375  0.89041508  0.77534112    -0.81000
O2983       O  0.99135613  0.82024087  0.84001630    -0.79200
O2984       O  0.52891270  0.86188067  0.79172800    -1.15400
O2985       O  0.50472189  0.78792838  0.78727255    -0.74600
C2986       C  0.52825628  0.79079513  0.80714289     0.96200
C2987       C  0.57728431  0.92838720  0.74851674     0.92600
Al2988     Al  0.52842973  0.90086901  0.80468533     1.55600
O2989       O  0.54308985  0.83305273  0.74065701    -0.79200
C2990       C  0.99811063  0.84838781  0.85688020     0.96700
C2991       C  0.59540545  0.91024566  0.83496220     0.91600
O2992       O  0.59809982  0.88998698  0.81393578    -0.84500
O2993       O  0.76389409  0.94274359  0.80825911    -0.84000
C2994       C  0.90432381  0.54256924  0.77622460     0.95400
O2995       O  0.88362965  0.54537109  0.79616085    -0.73100
O2996       O  0.83790062  0.01295426  0.74348384    -0.76700
Al2997     Al  0.83381866  0.01296006  0.79176748     1.49000
C2998       C  0.81646641  0.98480432  0.72663408     0.90700
O2999       O  0.81972585  0.91677089  0.74972485    -0.82900
O3000       O  0.84802486  0.93103293  0.83381554    -0.76400
Al3001     Al  0.79434415  0.93232621  0.77890699     1.90100
O3002       O  0.87501296  0.94341598  0.76943071    -0.75500
O3003       O  0.87687531  0.00032508  0.84273442    -0.75400
O3004       O  0.90377769  0.01283017  0.77521834    -0.81000
O3005       O  0.82971578  0.50886557  0.84005794    -0.79200
O3006       O  0.83384854  0.97138098  0.79174983    -1.15400
O3007       O  0.78402515  0.99544921  0.78736439    -0.74600
C3008       C  0.76331327  0.97191762  0.80725536     0.96200
C3009       C  0.85198372  0.92301826  0.74853219     0.92600
Al3010     Al  0.87337898  0.97196305  0.80460308     1.55600
O3011       O  0.79082964  0.95708319  0.74075553    -0.79200
C3012       C  0.85113043  0.50216275  0.85687424     0.96700
C3013       C  0.81576807  0.90496657  0.83501429     0.91600
O3014       O  0.79273981  0.90224522  0.81410380    -0.84500
O3015       O  0.93041772  0.77599654  0.64152206    -0.84000
C3016       C  0.57085240  0.87584206  0.60956062     0.95400
O3017       O  0.55013950  0.87863829  0.62947462    -0.73100
O3018       O  0.00445954  0.84624797  0.57677737    -0.76700
Al3019     Al  0.50034629  0.84623044  0.62506051     1.49000
C3020       C  0.98304280  0.81810019  0.55991862     0.90700
O3021       O  0.98628913  0.75008089  0.58292917    -0.82900
O3022       O  0.51452666  0.76428593  0.66705689    -0.76400
Al3023     Al  0.96087775  0.76560120  0.61214263     1.90100
O3024       O  0.54155330  0.77670474  0.60268861    -0.75500
O3025       O  0.54336928  0.83354891  0.67603688    -0.75400
O3026       O  0.57030840  0.84610004  0.60854159    -0.81000
O3027       O  0.49622183  0.84212986  0.67334767    -0.79200
O3028       O  0.50037410  0.80464925  0.62502293    -1.15400
O3029       O  0.95055174  0.82870923  0.62064435    -0.74600
C3030       C  0.92985327  0.80518234  0.64054618     0.96200
C3031       C  0.51855363  0.75633465  0.58175601     0.92600
Al3032     Al  0.53989394  0.80522091  0.63788281     1.55600
O3033       O  0.95737011  0.79039610  0.57402443    -0.79200
C3034       C  0.51764317  0.83544440  0.69017297     0.96700
C3035       C  0.98227693  0.73821329  0.66823520     0.91600
O3036       O  0.95925851  0.73548102  0.64730772    -0.84500
O3037       O  0.83332365  0.79026870  0.75946787    -0.84000
C3038       C  0.84877956  0.85050742  0.64331020     0.95400
O3039       O  0.82062615  0.82910323  0.66018508    -0.73100
O3040       O  0.78826570  0.78347137  0.71293201    -0.76700
Al3041     Al  0.82066624  0.83325432  0.70846952     1.49000
C3042       C  0.79108350  0.76278508  0.69300609     0.90700
O3043       O  0.89025772  0.79203391  0.68620091    -0.82900
O3044       O  0.93147455  0.87433141  0.73065759    -0.76400
Al3045     Al  0.86169633  0.79372384  0.72136010     1.90100
O3046       O  0.91679979  0.84724015  0.66631517    -0.75500
O3047       O  0.89094380  0.90316099  0.72483859    -0.75400
O3048       O  0.87649765  0.87616527  0.65739873    -0.81000
O3049       O  0.83820616  0.88303490  0.70400135    -0.79200
O3050       O  0.86226062  0.83321827  0.70843465    -1.15400
O3051       O  0.82479578  0.83743404  0.75675220    -0.74600
C3052       C  0.83151983  0.81604553  0.77358139     0.96200
C3053       C  0.91059223  0.81499863  0.66521357     0.92600
Al3054     Al  0.90131401  0.87268138  0.69550238     1.55600
O3055       O  0.82082325  0.76330614  0.69201945    -0.79200
C3056       C  0.86176057  0.90373852  0.72387047     0.96700
C3057       C  0.92874542  0.85136278  0.75164641     0.91600
O3058       O  0.90263681  0.81912647  0.75054729    -0.84500
O3059       O  0.83414858  0.79072478  0.82404394    -0.84000
C3060       C  0.81879352  0.83563875  0.94023751     0.95400
O3061       O  0.84695081  0.84240059  0.92337232    -0.73100
O3062       O  0.87922586  0.82901146  0.87061824    -0.76700
Al3063     Al  0.84693738  0.84648554  0.87508569     1.49000
C3064       C  0.87631796  0.80547043  0.89050480     0.90700
O3065       O  0.77709287  0.73562304  0.89724126    -0.82900
O3066       O  0.73604348  0.77672348  0.85294449    -0.76400
Al3067     Al  0.80571487  0.76584747  0.86212029     1.90100
O3068       O  0.75073910  0.76440443  0.91727499    -0.75500
O3069       O  0.77673778  0.84616020  0.85874331    -0.75400
O3070       O  0.79117396  0.83372562  0.92615347    -0.81000
O3071       O  0.82951331  0.87881354  0.87954892    -0.79200
O3072       O  0.80527528  0.80485011  0.87509709    -1.15400
O3073       O  0.84283640  0.84649216  0.82680278    -0.74600
C3074       C  0.83603841  0.81832632  0.80995204     0.96200
C3075       C  0.75684712  0.73831212  0.91829529     0.92600
Al3076     Al  0.76628290  0.80532162  0.88807712     1.55600
O3077       O  0.84653094  0.77625998  0.89146051    -0.79200
C3078       C  0.80596364  0.87593442  0.85968877     0.96700
C3079       C  0.73872845  0.75647520  0.83189317     0.91600
O3080       O  0.76481010  0.75034636  0.83292557    -0.84500
O3081       O  0.89091588  0.48725702  0.97483092    -0.84000
C3082       C  0.79119631  0.52781014  0.94293139     0.95400
O3083       O  0.78832638  0.50427009  0.96280213    -0.73100
O3084       O  0.82070376  0.99094203  0.91011137    -0.76700
Al3085     Al  0.82068441  0.48686360  0.95840174     1.49000
C3086       C  0.84887298  0.99771727  0.89325776     0.90700
O3087       O  0.91684702  0.56895496  0.91620491    -0.82900
O3088       O  0.90271492  0.58306300  0.50049939    -0.76400
Al3089     Al  0.90133376  0.52806494  0.94543984     1.90100
O3090       O  0.89039557  0.59767931  0.93615126    -0.75500
O3091       O  0.83340733  0.54265615  0.50942749    -0.75400
O3092       O  0.82097487  0.55702697  0.94196217    -0.81000
O3093       O  0.82474136  0.48689356  0.50669191    -0.79200
O3094       O  0.86231067  0.52851048  0.95838441    -1.15400
O3095       O  0.83815328  0.95458465  0.95400474    -0.74600
C3096       C  0.86169343  0.95748242  0.97388719     0.96200
C3097       C  0.91066151  0.59499608  0.91511880     0.92600
Al3098     Al  0.86181210  0.56749872  0.97130865     1.55600
O3099       O  0.87649328  0.49962431  0.90735914    -0.79200
C3100       C  0.83147504  0.51504268  0.52354006     0.96700
C3101       C  0.92878593  0.57692321  0.50158283     0.91600
O3102       O  0.93151115  0.55668166  0.98055999    -0.84500
O3103       O  0.77643970  0.93007733  0.60864630    -0.84000
C3104       C  0.87629629  0.57050367  0.64051913     0.95400
O3105       O  0.87909250  0.54979741  0.62060585    -0.73100
O3106       O  0.84668219  0.00412680  0.67333814    -0.76700
Al3107     Al  0.84668147  0.50001405  0.62505828     1.49000
C3108       C  0.81854015  0.98270782  0.69022031     0.90700
O3109       O  0.75046427  0.98594315  0.66716689    -0.82900
O3110       O  0.76470666  0.51416457  0.58305014    -0.76400
Al3111     Al  0.76601880  0.96053988  0.63798999     1.90100
O3112       O  0.77713540  0.54120931  0.64740058    -0.75500
O3113       O  0.83399090  0.54300643  0.57405195    -0.75400
O3114       O  0.84654873  0.56996276  0.64153699    -0.81000
O3115       O  0.84257040  0.49586835  0.57677148    -0.79200
O3116       O  0.80508944  0.50003448  0.62509665    -1.15400
O3117       O  0.82916011  0.95023340  0.62951163    -0.74600
C3118       C  0.80563541  0.92952220  0.60962705     0.96200
C3119       C  0.75674425  0.51821113  0.66833155     0.92600
Al3120     Al  0.80565725  0.53954174  0.61220977     1.55600
O3121       O  0.79080456  0.95706212  0.67613428    -0.79200
C3122       C  0.83587261  0.51727210  0.55993273     0.96700
C3123       C  0.73863001  0.98191258  0.58187369     0.91600
O3124       O  0.73590919  0.95889948  0.60280344    -0.84500
O3125       O  0.94307177  0.76340636  0.94191592    -0.84000
C3126       C  0.54296041  0.90380113  0.97388367     0.95400
O3127       O  0.54576621  0.88309617  0.95397069    -0.73100
O3128       O  0.01333878  0.83739428  0.50665456    -0.76700
Al3129     Al  0.01333690  0.83330583  0.95837134     1.49000
C3130       C  0.98517657  0.81598080  0.52351469     0.90700
O3131       O  0.91718228  0.81927443  0.50051563    -0.82900
O3132       O  0.93141530  0.84751720  0.91635117    -0.76400
Al3133     Al  0.93268897  0.79386345  0.97129879     1.90100
O3134       O  0.94379915  0.87452219  0.98072188    -0.75500
O3135       O  0.00070702  0.87636173  0.90740319    -0.75400
O3136       O  0.01321449  0.90326226  0.97489252    -0.81000
O3137       O  0.50924560  0.82919960  0.91008417    -0.79200
O3138       O  0.97175538  0.83334888  0.95841141    -1.15400
O3139       O  0.99579137  0.78351231  0.96277678    -0.74600
C3140       C  0.97225448  0.76282599  0.94288450     0.96200
C3141       C  0.92343547  0.85153177  0.50167332     0.92600
Al3142     Al  0.97234295  0.87287055  0.94554049     1.55600
O3143       O  0.95746981  0.79032511  0.50940984    -0.79200
C3144       C  0.50255203  0.85061632  0.89326579     0.96700
C3145       C  0.90532941  0.81527587  0.91519174     0.91600
O3146       O  0.90257858  0.79226945  0.93614233    -0.84500
O3147       O  0.79077910  0.83305276  0.99072253    -0.84000
C3148       C  0.85090793  0.84840441  0.60690511     0.95400
O3149       O  0.82950399  0.82026806  0.59002620    -0.73100
O3150       O  0.78391673  0.78795506  0.53724875    -0.76700
Al3151     Al  0.83370184  0.82032645  0.54174444     1.49000
C3152       C  0.76321175  0.79076459  0.55716300     0.90700
O3153       O  0.79249612  0.88991164  0.56400960    -0.82900
O3154       O  0.87485943  0.93113282  0.51951982    -0.76400
Al3155     Al  0.79420499  0.86138505  0.52884182     1.90100
O3156       O  0.84771639  0.91646872  0.58386803    -0.75500
O3157       O  0.90365276  0.89055367  0.52537466    -0.75400
O3158       O  0.87658980  0.87612133  0.59282264    -0.81000
O3159       O  0.88348173  0.83783114  0.54624632    -0.79200
O3160       O  0.83368972  0.86192561  0.54176955    -1.15400
O3161       O  0.83792088  0.82446904  0.99346123    -0.74600
C3162       C  0.81653831  0.83119427  0.97661810     0.96200
C3163       C  0.81546487  0.91025620  0.58497886     0.92600
Al3164     Al  0.87316419  0.90095618  0.55469772     1.55600
O3165       O  0.76374851  0.82050387  0.55816140    -0.79200
C3166       C  0.90419844  0.86135693  0.52635510     0.96700
C3167       C  0.85188028  0.92842788  0.99855359     0.91600
O3168       O  0.81963326  0.90233624  0.49967511    -0.84500
loop_ 
_geom_bond_atom_site_label_1 
_geom_bond_atom_site_label_2 
_geom_bond_distance 
_geom_bond_site_symmetry_2 
_ccdc_geom_bond_type 
O1           C16   1.277       .  A
O1         Al405   1.908       .  S
C2           O12   1.277       .  A
C2          O795   1.282       .  A
C2          C170   1.465       .  S
O3          C794   1.282       .  A
O3         Al797   1.940       .  S
O4            C6   1.242       .  A
O4           Al5   1.883       .  S
Al5         O795   1.940       .  S
Al5         O805   1.883       .  S
Al5         O411   1.940   1_554  S
Al5          O14   1.783       .  S
C6           O19   1.264       .  A
C6          C351   1.476       .  S
O7           C17   1.255       .  A
O7           Al9   1.888       .  S
O8          C417   1.255   1_554  A
O8          Al18   1.889       .  S
Al9          O22   1.928   1_554  S
Al9          O19   1.965       .  S
Al9         O397   1.908   1_554  S
Al9          O14   1.759       .  S
O10          C17   1.270       .  A
O10         Al18   1.927       .  S
O11         C812   1.264       .  A
O11         Al18   1.965       .  S
O12         Al18   1.908       .  S
O13          C20   1.242       .  A
O13        Al797   1.883       .  S
O14         Al18   1.759       .  S
O15          C16   1.282       .  A
O15        Al401   1.940       .  S
C16          C38   1.465       .  S
C17         C244   1.476       .  S
C20         O803   1.264       .  A
C20          C83   1.476       .  S
C21         O404   1.255       .  A
C21         O418   1.270       .  A
C21         C354   1.476       .  S
O22         C417   1.270       .  A
O23          C38   1.277       .  A
O23         Al31   1.908       .  S
C24          O34   1.277       .  A
C24          O25   1.282   1_545  A
C24         C156   1.465       .  S
O25         Al27   1.940       .  S
O26          C28   1.242       .  A
O26        Al819   1.883       .  S
Al27         O35   1.882   1_565  S
Al27        O818   1.883       .  S
Al27        O829   1.940   1_565  S
Al27         O36   1.783       .  S
C28          O41   1.264       .  A
C28         C219   1.476       .  S
O29          C39   1.255       .  A
O29         Al31   1.888       .  S
O30          C43   1.255       .  A
O30         Al40   1.889       .  S
Al31         O44   1.928       .  S
Al31         O41   1.965       .  S
Al31        O828   1.759       .  S
O32         C831   1.270   1_545  A
O32         Al40   1.927       .  S
O33          C42   1.264       .  A
O33         Al40   1.965       .  S
O34         Al40   1.909       .  S
O35          C42   1.242       .  A
O36         Al40   1.759   1_565  S
O36        Al823   1.759       .  S
O37          C38   1.282       .  A
O37        Al819   1.940       .  S
C39         O824   1.270       .  A
C39         C236   1.475       .  S
C42          C87   1.475       .  S
C43         O836   1.270   1_545  A
C43         C310   1.476       .  S
O44         C835   1.270       .  A
O45        C1644   1.277   1_455  A
O45         Al53   1.908       .  S
C46          O56   1.277       .  A
C46          O47   1.282   1_455  A
C46         C148   1.465       .  S
O47        Al445   1.940       .  S
O48          C50   1.242       .  A
O48       Al1633   1.883       .  S
Al49         O57   1.882   1_655  S
Al49        O443   1.940   1_554  S
Al49       O1632   1.883       .  S
Al49       O1643   1.940       .  S
Al49         O58   1.783   1_655  S
C50        O1647   1.264       .  A
C50         C329   1.475       .  S
O51         C457   1.255   1_554  A
O51         Al53   1.888       .  S
O52          C65   1.255       .  A
O52         Al62   1.889       .  S
Al53         O66   1.928       .  S
Al53         O63   1.964   1_455  S
Al53         O58   1.759       .  S
O54         C457   1.271       .  A
O54         Al62   1.928   1_556  S
O55          C64   1.264       .  A
O55         Al62   1.965       .  S
O56        Al458   1.909       .  S
O57          C64   1.242       .  A
O58         Al62   1.759       .  S
O59          C60   1.282       .  A
O59       Al1633   1.940       .  S
C60        O1629   1.277       .  A
C60          C90   1.465       .  S
C61         O447   1.255       .  A
C61         O450   1.271       .  A
C61          C68   1.476       .  S
Al62        O452   1.909   1_554  S
O63        C1634   1.264       .  A
C64         C259   1.476       .  S
C65          O66   1.270       .  A
C65         C112   1.476       .  S
O67          C82   1.264       .  A
O67         Al75   1.965       .  S
C68          O78   1.264       .  A
C68          O69   1.242       .  A
O69         Al71   1.882       .  S
O70          C72   1.282       .  A
O70        Al467   1.940   1_554  S
Al71         O79   1.940       .  S
Al71         O81   1.883       .  S
Al71        O466   1.940       .  S
Al71         O80   1.783       .  S
C72          O85   1.277       .  A
C72         C116   1.465       .  S
O73          C83   1.270       .  A
O73        Al471   1.928   1_554  S
O74          C87   1.271       .  A
O74         Al84   1.927       .  S
Al75         O88   1.888       .  S
Al75        O469   1.928       .  S
Al75        O481   1.909       .  S
Al75         O80   1.759       .  S
O76         C479   1.255       .  A
O76         Al84   1.888       .  S
O77          C86   1.277       .  A
O77         Al84   1.909       .  S
O78         Al84   1.965       .  S
O79          C86   1.282       .  A
O80         Al84   1.759       .  S
O81          C82   1.242       .  A
C82         C303   1.476       .  S
C83         O472   1.255   1_554  A
O85        Al471   1.909   1_554  S
C86         C182   1.465       .  S
C87          O88   1.255       .  A
O89         C104   1.277       .  A
O89         Al97   1.908       .  S
C90         O100   1.277       .  A
C90        O1675   1.282       .  A
O91        C1674   1.282       .  A
O91       Al1677   1.940       .  S
O92          C94   1.242       .  A
O92         Al93   1.883       .  S
Al93        O103   1.940       .  S
Al93       O1675   1.940       .  S
Al93       O1685   1.883       .  S
Al93        O102   1.783       .  S
C94         O107   1.264       .  A
C94         C263   1.475       .  S
O95         C105   1.255       .  A
O95         Al97   1.888       .  S
O96         C109   1.255       .  A
O96        Al106   1.889       .  S
Al97        O110   1.928       .  S
Al97        O107   1.964       .  S
Al97        O102   1.759       .  S
O98         C105   1.271       .  A
O98        Al106   1.928       .  S
O99        C1692   1.264       .  A
O99        Al106   1.965       .  S
O100       Al106   1.908       .  S
O101        C108   1.242       .  A
O101      Al1677   1.883       .  S
O102       Al106   1.759       .  S
O103        C104   1.282       .  A
C104        C134   1.465       .  S
C105        C332   1.476       .  S
C108       O1683   1.264       .  A
C108        C197   1.476       .  S
C109        O110   1.271       .  A
C109        C222   1.476       .  S
O111        C126   1.264       .  A
O111       Al119   1.965       .  S
C112        O122   1.264       .  A
C112        O113   1.242       .  A
O113       Al115   1.883       .  S
O114        C116   1.282       .  A
O114       Al115   1.940       .  S
Al115       O123   1.940       .  S
Al115       O125   1.883       .  S
Al115       O124   1.783       .  S
C116        O129   1.277       .  A
O117        C127   1.270       .  A
O117       Al119   1.927       .  S
O118        C131   1.271       .  A
O118       Al128   1.928       .  S
Al119       O132   1.888       .  S
Al119       O129   1.909       .  S
Al119       O124   1.759       .  S
O120        C127   1.254       .  A
O120       Al128   1.888       .  S
O121        C130   1.277       .  A
O121       Al128   1.908       .  S
O122       Al128   1.965       .  S
O123        C130   1.282       .  A
O124       Al128   1.759       .  S
O125        C126   1.242       .  A
C126        C175   1.476       .  S
C127        C380   1.475       .  S
C130        C196   1.466       .  S
C131        O132   1.255       .  A
C131        C270   1.476       .  S
O133        C148   1.277       .  A
O133       Al141   1.909       .  S
C134        O144   1.277       .  A
C134        O135   1.282       .  A
O135       Al137   1.940       .  S
O136        C138   1.242       .  A
O136      Al1721   1.882       .  S
Al137       O145   1.883       .  S
Al137      O1720   1.882       .  S
Al137      O1731   1.940       .  S
Al137       O146   1.783       .  S
C138        O151   1.264       .  A
C138        C193   1.475       .  S
O139        C149   1.255       .  A
O139       Al141   1.889       .  S
O140        C153   1.255       .  A
O140       Al150   1.889       .  S
Al141       O154   1.927       .  S
Al141       O151   1.965       .  S
Al141      O1730   1.759       .  S
O142       C1733   1.270       .  A
O142       Al150   1.928       .  S
O143        C152   1.264       .  A
O143       Al150   1.965       .  S
O144       Al150   1.908       .  S
O145        C152   1.242       .  A
O146       Al150   1.759       .  S
O146      Al1725   1.759       .  S
O147        C148   1.282   1_655  A
O147      Al1721   1.940   1_655  S
C149       O1726   1.271   1_455  A
C149        C214   1.476       .  S
C152        C325   1.476       .  S
C153       O1738   1.270       .  A
C153        C368   1.476       .  S
O154       C1737   1.270   1_455  A
O155        C962   1.277       .  A
O155       Al163   1.908   1_565  S
C156        O166   1.277       .  A
C156        O157   1.282   1_545  A
O157       Al159   1.940       .  S
O158        C160   1.242       .  A
O158       Al951   1.883       .  S
Al159       O167   1.882   1_565  S
Al159       O950   1.882       .  S
Al159       O961   1.940       .  S
Al159       O168   1.783   1_565  S
C160        O965   1.264       .  A
C160        C215   1.476       .  S
O161        C171   1.255       .  A
O161       Al163   1.889       .  S
O162        C175   1.255       .  A
O162       Al172   1.889       .  S
Al163       O176   1.928       .  S
Al163       O173   1.965   1_545  S
Al163       O168   1.759       .  S
O164        C171   1.270       .  A
O164       Al172   1.927       .  S
O165        C174   1.264       .  A
O165       Al172   1.965       .  S
O166       Al172   1.909       .  S
O167        C174   1.242       .  A
O168       Al172   1.759       .  S
O169        C170   1.282       .  A
O169       Al951   1.940       .  S
C170        O947   1.277       .  A
C171        C192   1.476       .  S
O173        C952   1.264       .  A
C174        C347   1.476       .  S
C175        O176   1.270       .  A
O177        C192   1.264       .  A
O177       Al185   1.965       .  S
C178        O188   1.264       .  A
C178        O179   1.242       .  A
C178        C307   1.476       .  S
O179       Al181   1.883       .  S
O180        C182   1.282       .  A
O180       Al181   1.940       .  S
Al181       O189   1.940       .  S
Al181       O191   1.883       .  S
Al181       O190   1.783       .  S
C182        O195   1.277       .  A
O183        C193   1.270       .  A
O183       Al185   1.927       .  S
O184        C197   1.271       .  A
O184       Al194   1.928       .  S
Al185       O198   1.888       .  S
Al185       O195   1.909       .  S
Al185       O190   1.759       .  S
O186        C193   1.254       .  A
O186       Al194   1.888       .  S
O187        C196   1.277       .  A
O187       Al194   1.908       .  S
O188       Al194   1.965       .  S
O189        C196   1.282       .  A
O190       Al194   1.759       .  S
O191        C192   1.242       .  A
C197        O198   1.255       .  A
O199        C214   1.264       .  A
O199       Al207   1.965       .  S
C200        O201   1.242       .  A
C200       O1794   1.264       .  A
C200        C285   1.476       .  S
O201      Al1787   1.883       .  S
O202        C204   1.282   1_655  A
O202       Al203   1.940       .  S
Al203       O213   1.883   1_655  S
Al203      O1785   1.883       .  S
Al203      O1795   1.941       .  S
Al203       O212   1.783   1_655  S
C204        O217   1.277       .  A
C204        C262   1.465       .  S
O205        C215   1.271       .  A
O205       Al207   1.928       .  S
O206        C219   1.271       .  A
O206       Al216   1.928       .  S
Al207       O220   1.888       .  S
Al207       O217   1.908       .  S
Al207       O212   1.759       .  S
O208        C215   1.255       .  A
O208       Al216   1.888       .  S
O209       C1802   1.277   1_455  A
O209       Al216   1.908       .  S
O210       C1784   1.264       .  A
O210       Al216   1.965   1_655  S
O211        C218   1.282       .  A
O211      Al1787   1.941       .  S
O212       Al216   1.759       .  S
O213        C214   1.242       .  A
C218       O1793   1.277       .  A
C218       C1956   1.466       .  S
C219        O220   1.255       .  A
O221        C236   1.264       .  A
O221       Al229   1.965       .  S
C222        O223   1.242       .  A
C222       O1024   1.264       .  A
O223      Al1017   1.883       .  S
O224        C226   1.282       .  A
O224       Al225   1.940       .  S
Al225       O235   1.883       .  S
Al225      O1015   1.883       .  S
Al225      O1025   1.940       .  S
Al225       O234   1.783       .  S
C226        O239   1.277       .  A
C226        C336   1.465       .  S
O227        C237   1.270       .  A
O227       Al229   1.927       .  S
O228        C241   1.271       .  A
O228       Al238   1.928       .  S
Al229       O242   1.888       .  S
Al229       O239   1.909       .  S
Al229       O234   1.759       .  S
O230        C237   1.255       .  A
O230       Al238   1.888       .  S
O231       C1032   1.277       .  A
O231       Al238   1.909       .  S
O232       C1014   1.264       .  A
O232       Al238   1.965       .  S
O233        C240   1.282       .  A
O233      Al1017   1.940       .  S
O234       Al238   1.759       .  S
O235        C236   1.242       .  A
C237        C284   1.475       .  S
C240       O1023   1.277       .  A
C240       C1106   1.465   1_545  S
C241        O242   1.255       .  A
C241        C306   1.476       .  S
O243        C258   1.264       .  A
O243       Al251   1.965       .  S
C244        O254   1.264       .  A
C244        O245   1.242       .  A
O245       Al247   1.883       .  S
O246        C248   1.282       .  A
O246      Al1831   1.940       .  S
Al247       O255   1.940   1_455  S
Al247      O1830   1.940       .  S
Al247      O1841   1.883   1_455  S
Al247       O256   1.783       .  S
C248        O261   1.277       .  A
C248        C358   1.465       .  S
O249       C1843   1.271       .  A
O249       Al251   1.928       .  S
O250       C1847   1.270   1_455  A
O250       Al260   1.927       .  S
Al251       O264   1.888       .  S
Al251       O261   1.909       .  S
Al251      O1840   1.759       .  S
O252        C259   1.255       .  A
O252       Al260   1.888       .  S
O253        C262   1.277       .  A
O253       Al260   1.909       .  S
O254       Al260   1.965       .  S
O255        C262   1.282   1_655  A
O256       Al260   1.759       .  S
O256      Al1835   1.759   1_455  S
O257        C258   1.242       .  A
O257      Al1831   1.883       .  S
C258        C281   1.476       .  S
C259       O1833   1.271   1_455  A
C263        O264   1.255       .  A
C263       O1834   1.270       .  A
O265        C280   1.277       .  A
O265       Al273   1.908       .  S
C266        O276   1.277       .  A
C266        O267   1.282       .  A
C266        C376   1.465       .  S
O267       Al269   1.940       .  S
O268        C270   1.242       .  A
O268       Al269   1.883       .  S
Al269       O277   1.882       .  S
Al269       O279   1.940       .  S
Al269       O278   1.783       .  S
C270        O283   1.264       .  A
O271        C281   1.255       .  A
O271       Al273   1.889       .  S
O272        C285   1.255       .  A
O272       Al282   1.889       .  S
Al273       O286   1.928       .  S
Al273       O283   1.965       .  S
Al273       O278   1.759       .  S
O274        C281   1.270       .  A
O274       Al282   1.927       .  S
O275        C284   1.264       .  A
O275       Al282   1.965       .  S
O276       Al282   1.908       .  S
O277        C284   1.242       .  A
O278       Al282   1.759       .  S
O279        C280   1.282       .  A
C280        C302   1.465       .  S
C285        O286   1.270       .  A
O287        C302   1.277       .  A
O287       Al295   1.908       .  S
C288        O298   1.277       .  A
C288        O289   1.282       .  A
C288        C390   1.465       .  S
O289       Al291   1.940       .  S
O290        C292   1.242       .  A
O290       Al291   1.883       .  S
Al291       O299   1.883       .  S
Al291       O301   1.940       .  S
Al291       O300   1.783       .  S
C292        O305   1.264       .  A
C292        C373   1.476       .  S
O293        C303   1.255       .  A
O293       Al295   1.888       .  S
O294        C307   1.255       .  A
O294       Al304   1.889       .  S
Al295       O308   1.928       .  S
Al295       O305   1.965       .  S
Al295       O300   1.759       .  S
O296        C303   1.271       .  A
O296       Al304   1.928       .  S
O297        C306   1.264       .  A
O297       Al304   1.965       .  S
O298       Al304   1.908       .  S
O299        C306   1.242       .  A
O300       Al304   1.759       .  S
O301        C302   1.282       .  A
C307        O308   1.271       .  A
O309       C1116   1.264       .  A
O309       Al317   1.965   1_565  S
C310        O320   1.264       .  A
C310        O311   1.242       .  A
O311       Al313   1.883   1_545  S
O312        C314   1.282       .  A
O312      Al1105   1.940       .  S
Al313      O1104   1.940       .  S
Al313       O717   1.940       .  S
Al313      O1115   1.883       .  S
Al313       O322   1.783   1_565  S
C314       O1119   1.277       .  A
C314       C1032   1.465       .  S
O315        C325   1.271       .  A
O315       Al317   1.928       .  S
O316        C329   1.270       .  A
O316       Al722   1.927   1_554  S
Al317       O330   1.888       .  S
Al317       O327   1.908   1_545  S
Al317       O322   1.759       .  S
O318        C325   1.255       .  A
O318       Al326   1.888       .  S
O319        C328   1.277       .  A
O319       Al722   1.909   1_554  S
O320       Al326   1.965       .  S
O321        C328   1.282   1_565  A
O321       Al709   1.940   1_554  S
O322       Al326   1.759       .  S
O323        C324   1.242       .  A
O323      Al1105   1.883       .  S
C324       O1101   1.264       .  A
C324        C395   1.476       .  S
Al326       O712   1.927       .  S
Al326       O715   1.909       .  S
O327       C1106   1.277       .  A
C328        C350   1.466       .  S
C329        O726   1.255   1_554  A
O330        C725   1.255       .  A
O331        C346   1.264       .  A
O331       Al339   1.965       .  S
C332        O342   1.264       .  A
C332        O333   1.242       .  A
O333       Al335   1.883       .  S
O334        C336   1.282       .  A
O334      Al1127   1.940       .  S
Al335       O343   1.940   1_545  S
Al335      O1126   1.940       .  S
Al335      O1137   1.882   1_545  S
Al335       O344   1.783       .  S
C336        O349   1.277       .  A
O337       C1139   1.271       .  A
O337       Al339   1.928       .  S
O338       C1143   1.270   1_545  A
O338       Al348   1.927       .  S
Al339       O352   1.888       .  S
Al339       O349   1.909       .  S
Al339      O1136   1.759       .  S
O340        C347   1.255       .  A
O340       Al348   1.888       .  S
O341        C350   1.277       .  A
O341       Al348   1.909       .  S
O342       Al348   1.965       .  S
O343        C350   1.282   1_565  A
O344       Al348   1.759       .  S
O344      Al1131   1.759   1_545  S
O345        C346   1.242       .  A
O345      Al1127   1.882       .  S
C346        C391   1.476       .  S
C347       O1129   1.271   1_545  A
C351        O352   1.255       .  A
C351       O1130   1.270       .  A
O353        C368   1.264       .  A
O353       Al361   1.965       .  S
C354        O355   1.242       .  A
C354       O1948   1.264       .  A
O355      Al1941   1.883       .  S
O356        C358   1.282       .  A
O356       Al753   1.940   1_554  S
Al357       O367   1.883       .  S
Al357      O1939   1.883       .  S
Al357       O752   1.940       .  S
Al357      O1949   1.940       .  S
Al357       O366   1.783       .  S
C358        O371   1.277       .  A
O359        C369   1.271       .  A
O359       Al757   1.927   1_554  S
O360        C373   1.270       .  A
O360       Al370   1.927       .  S
Al361       O374   1.888       .  S
Al361       O755   1.927       .  S
Al361       O767   1.909       .  S
Al361       O366   1.759       .  S
O362        C765   1.255       .  A
O362       Al370   1.888       .  S
O363       C1956   1.277       .  A
O363       Al370   1.909       .  S
O364       C1938   1.264       .  A
O364       Al370   1.965       .  S
O365        C372   1.282       .  A
O365      Al1941   1.940       .  S
O366       Al370   1.759       .  S
O367        C368   1.242       .  A
C369        O758   1.255   1_554  A
C369        C394   1.476       .  S
O371       Al757   1.909   1_554  S
C372       O1947   1.277       .  A
C372       C1802   1.466   1_455  S
C373        O374   1.255       .  A
O375        C390   1.277       .  A
O375       Al779   1.908       .  S
C376        O386   1.277       .  A
C376        O377   1.282       .  A
O377       Al379   1.940       .  S
O378        C380   1.242       .  A
O378       Al379   1.883       .  S
Al379       O387   1.882       .  S
Al379       O785   1.940   1_554  S
Al379       O388   1.783       .  S
C380        O393   1.264       .  A
O381        C391   1.255       .  A
O381       Al383   1.889       .  S
O382        C791   1.255   1_554  A
O382       Al392   1.889       .  S
Al383       O396   1.928   1_554  S
Al383       O393   1.965       .  S
Al383       O771   1.908   1_554  S
Al383       O388   1.759       .  S
O384        C391   1.271       .  A
O384       Al392   1.928       .  S
O385        C394   1.264       .  A
O385       Al392   1.965       .  S
O386       Al392   1.909       .  S
O387        C394   1.242       .  A
O388       Al392   1.759       .  S
O389        C390   1.282       .  A
O389       Al775   1.940       .  S
C395        O778   1.255       .  A
C395        O792   1.270       .  A
O396        C791   1.270       .  A
O397        C412   1.277       .  A
C398        O408   1.277       .  A
C398       O1191   1.282       .  A
C398        C566   1.465       .  S
O399       C1190   1.282       .  A
O399      Al1193   1.940       .  S
O400        C402   1.242       .  A
O400       Al401   1.883       .  S
Al401      O1191   1.940       .  S
Al401      O1201   1.883       .  S
Al401       O410   1.783       .  S
C402        O415   1.264       .  A
C402        C747   1.476       .  S
O403        C413   1.255       .  A
O403       Al405   1.888       .  S
O404       Al414   1.889       .  S
Al405       O418   1.928       .  S
Al405       O415   1.965       .  S
Al405       O410   1.759       .  S
O406        C413   1.270       .  A
O406       Al414   1.927       .  S
O407       C1208   1.264       .  A
O407       Al414   1.965       .  S
O408       Al414   1.908       .  S
O409        C416   1.242       .  A
O409      Al1193   1.883       .  S
O410       Al414   1.759       .  S
O411        C412   1.282       .  A
C412        C434   1.465       .  S
C413        C640   1.476       .  S
C416       O1199   1.264       .  A
C416        C479   1.476       .  S
C417        C750   1.476       .  S
O419        C434   1.277       .  A
O419       Al427   1.908       .  S
C420        O430   1.277       .  A
C420        O421   1.282   1_545  A
C420        C552   1.465       .  S
O421       Al423   1.940       .  S
O422        C424   1.242       .  A
O422      Al1215   1.883       .  S
Al423      O1214   1.883       .  S
Al423       O431   1.882   1_565  S
Al423      O1225   1.940   1_565  S
Al423       O432   1.783       .  S
C424        O437   1.264       .  A
C424        C615   1.476       .  S
O425        C435   1.255       .  A
O425       Al427   1.888       .  S
O426        C439   1.255       .  A
O426       Al436   1.889       .  S
Al427       O440   1.928       .  S
Al427       O437   1.965       .  S
Al427      O1224   1.759       .  S
O428       C1227   1.270   1_545  A
O428       Al436   1.927       .  S
O429        C438   1.264       .  A
O429       Al436   1.965       .  S
O430       Al436   1.909       .  S
O431        C438   1.242       .  A
O432      Al1219   1.759       .  S
O432       Al436   1.759   1_565  S
O433        C434   1.282       .  A
O433      Al1215   1.940       .  S
C435       O1220   1.270       .  A
C435        C632   1.475       .  S
C438        C483   1.475       .  S
C439       O1232   1.270   1_545  A
C439        C706   1.476       .  S
O440       C1231   1.270       .  A
O441       C2040   1.277   1_455  A
O441       Al449   1.908       .  S
C442        O452   1.277       .  A
C442        O443   1.282   1_455  A
C442        C544   1.465       .  S
O444        C446   1.242       .  A
O444      Al2029   1.883       .  S
Al445      O2028   1.883       .  S
Al445       O453   1.882   1_655  S
Al445      O2039   1.940       .  S
Al445       O454   1.783   1_655  S
C446       O2043   1.264       .  A
C446        C725   1.475       .  S
O447       Al449   1.888       .  S
O448        C461   1.255       .  A
O448       Al458   1.889       .  S
Al449       O462   1.928       .  S
Al449       O459   1.964   1_455  S
Al449       O454   1.759       .  S
O450       Al458   1.928       .  S
O451        C460   1.264       .  A
O451       Al458   1.965       .  S
O453        C460   1.242       .  A
O454       Al458   1.759       .  S
O455        C456   1.282       .  A
O455      Al2029   1.940       .  S
C456       O2025   1.277       .  A
C456        C486   1.465       .  S
C457        C464   1.476       .  S
O459       C2030   1.264       .  A
C460        C655   1.476       .  S
C461        O462   1.270       .  A
C461        C508   1.476       .  S
O463        C478   1.264       .  A
O463       Al471   1.965       .  S
C464        O474   1.264       .  A
C464        O465   1.242       .  A
O465       Al467   1.882       .  S
O466        C468   1.282       .  A
Al467       O475   1.940       .  S
Al467       O477   1.883       .  S
Al467       O476   1.783       .  S
C468        O481   1.277       .  A
C468        C512   1.465       .  S
O469        C479   1.270       .  A
O470        C483   1.271       .  A
O470       Al480   1.927       .  S
Al471       O484   1.888       .  S
Al471       O476   1.759       .  S
O472       Al480   1.888       .  S
O473        C482   1.277       .  A
O473       Al480   1.909       .  S
O474       Al480   1.965       .  S
O475        C482   1.282       .  A
O476       Al480   1.759       .  S
O477        C478   1.242       .  A
C478        C699   1.476       .  S
C482        C578   1.465       .  S
C483        O484   1.255       .  A
O485        C500   1.277       .  A
O485       Al493   1.908       .  S
C486        O496   1.277       .  A
C486       O2071   1.282       .  A
O487       C2070   1.282       .  A
O487      Al2073   1.940       .  S
O488        C490   1.242       .  A
O488       Al489   1.883       .  S
Al489      O2071   1.940       .  S
Al489      O2081   1.883       .  S
Al489       O499   1.940       .  S
Al489       O498   1.783       .  S
C490        O503   1.264       .  A
C490        C659   1.475       .  S
O491        C501   1.255       .  A
O491       Al493   1.888       .  S
O492        C505   1.255       .  A
O492       Al502   1.889       .  S
Al493       O506   1.928       .  S
Al493       O503   1.964       .  S
Al493       O498   1.759       .  S
O494        C501   1.271       .  A
O494       Al502   1.928       .  S
O495       C2088   1.264       .  A
O495       Al502   1.965       .  S
O496       Al502   1.908       .  S
O497        C504   1.242       .  A
O497      Al2073   1.883       .  S
O498       Al502   1.759       .  S
O499        C500   1.282       .  A
C500        C530   1.465       .  S
C501        C728   1.476       .  S
C504       O2079   1.264       .  A
C504        C593   1.476       .  S
C505        O506   1.271       .  A
C505        C618   1.476       .  S
O507        C522   1.264       .  A
O507       Al515   1.965       .  S
C508        O518   1.264       .  A
C508        O509   1.242       .  A
O509       Al511   1.883       .  S
O510        C512   1.282       .  A
O510       Al511   1.940       .  S
Al511       O519   1.940       .  S
Al511       O521   1.883       .  S
Al511       O520   1.783       .  S
C512        O525   1.277       .  A
O513        C523   1.270       .  A
O513       Al515   1.927       .  S
O514        C527   1.271       .  A
O514       Al524   1.928       .  S
Al515       O528   1.888       .  S
Al515       O525   1.909       .  S
Al515       O520   1.759       .  S
O516        C523   1.254       .  A
O516       Al524   1.888       .  S
O517        C526   1.277       .  A
O517       Al524   1.908       .  S
O518       Al524   1.965       .  S
O519        C526   1.282       .  A
O520       Al524   1.759       .  S
O521        C522   1.242       .  A
C522        C571   1.476       .  S
C523        C776   1.475       .  S
C526        C592   1.466       .  S
C527        O528   1.255       .  A
C527        C666   1.476       .  S
O529        C544   1.277       .  A
O529       Al537   1.909       .  S
C530        O540   1.277       .  A
C530        O531   1.282       .  A
O531       Al533   1.940       .  S
O532        C534   1.242       .  A
O532      Al2117   1.882       .  S
Al533      O2116   1.882       .  S
Al533       O541   1.883       .  S
Al533      O2127   1.940       .  S
Al533       O542   1.783       .  S
C534        O547   1.264       .  A
C534        C589   1.475       .  S
O535        C545   1.255       .  A
O535       Al537   1.889       .  S
O536        C549   1.255       .  A
O536       Al546   1.889       .  S
Al537       O550   1.927       .  S
Al537       O547   1.965       .  S
Al537      O2126   1.759       .  S
O538       C2129   1.271       .  A
O538       Al546   1.928       .  S
O539        C548   1.264       .  A
O539       Al546   1.965       .  S
O540       Al546   1.908       .  S
O541        C548   1.242       .  A
O542      Al2121   1.759       .  S
O542       Al546   1.759       .  S
O543        C544   1.282   1_655  A
O543      Al2117   1.940   1_655  S
C545       O2122   1.271   1_455  A
C545        C610   1.476       .  S
C548        C721   1.476       .  S
C549       O2134   1.270       .  A
C549        C764   1.476       .  S
O550       C2133   1.270   1_455  A
O551       C1358   1.277       .  A
O551       Al559   1.908   1_565  S
C552        O562   1.277       .  A
C552        O553   1.282   1_545  A
O553       Al555   1.940       .  S
O554        C556   1.242       .  A
O554      Al1347   1.883       .  S
Al555      O1346   1.882       .  S
Al555       O563   1.882   1_565  S
Al555      O1357   1.940       .  S
Al555       O564   1.783   1_565  S
C556       O1361   1.264       .  A
C556        C611   1.476       .  S
O557        C567   1.255       .  A
O557       Al559   1.889       .  S
O558        C571   1.255       .  A
O558       Al568   1.889       .  S
Al559       O572   1.928       .  S
Al559       O569   1.965   1_545  S
Al559       O564   1.759       .  S
O560        C567   1.270       .  A
O560       Al568   1.927       .  S
O561        C570   1.264       .  A
O561       Al568   1.965       .  S
O562       Al568   1.909       .  S
O563        C570   1.242       .  A
O564       Al568   1.759       .  S
O565        C566   1.282       .  A
O565      Al1347   1.940       .  S
C566       O1343   1.277       .  A
C567        C588   1.476       .  S
O569       C1348   1.264       .  A
C570        C743   1.476       .  S
C571        O572   1.270       .  A
O573        C588   1.264       .  A
O573       Al581   1.965       .  S
C574        O584   1.264       .  A
C574        O575   1.242       .  A
C574        C703   1.476       .  S
O575       Al577   1.883       .  S
O576        C578   1.282       .  A
O576       Al577   1.940       .  S
Al577       O585   1.940       .  S
Al577       O587   1.883       .  S
Al577       O586   1.783       .  S
C578        O591   1.277       .  A
O579        C589   1.270       .  A
O579       Al581   1.927       .  S
O580        C593   1.271       .  A
O580       Al590   1.928       .  S
Al581       O594   1.888       .  S
Al581       O591   1.909       .  S
Al581       O586   1.759       .  S
O582        C589   1.255       .  A
O582       Al590   1.888       .  S
O583        C592   1.277       .  A
O583       Al590   1.908       .  S
O584       Al590   1.965       .  S
O585        C592   1.282       .  A
O586       Al590   1.759       .  S
O587        C588   1.242       .  A
C593        O594   1.255       .  A
O595        C610   1.264       .  A
O595       Al603   1.965       .  S
C596       O2190   1.264       .  A
C596        O597   1.242       .  A
C596        C681   1.476       .  S
O597      Al2183   1.883       .  S
O598        C600   1.282   1_655  A
O598       Al599   1.940       .  S
Al599      O2181   1.883       .  S
Al599      O2191   1.941       .  S
Al599       O609   1.883   1_655  S
Al599       O608   1.783   1_655  S
C600        O613   1.277       .  A
C600        C658   1.465       .  S
O601        C611   1.271       .  A
O601       Al603   1.928       .  S
O602        C615   1.271       .  A
O602       Al612   1.928       .  S
Al603       O616   1.888       .  S
Al603       O613   1.909       .  S
Al603       O608   1.759       .  S
O604        C611   1.255       .  A
O604       Al612   1.888       .  S
O605       C2198   1.277   1_455  A
O605       Al612   1.908       .  S
O606       C2180   1.264       .  A
O606       Al612   1.965   1_655  S
O607        C614   1.282       .  A
O607      Al2183   1.941       .  S
O608       Al612   1.759       .  S
O609        C610   1.242       .  A
C614       O2189   1.277       .  A
C614       C2352   1.466       .  S
C615        O616   1.255       .  A
O617        C632   1.264       .  A
O617       Al625   1.965       .  S
C618       O1420   1.264       .  A
C618        O619   1.242       .  A
O619      Al1413   1.883       .  S
O620        C622   1.282       .  A
O620       Al621   1.940       .  S
Al621      O1411   1.883       .  S
Al621      O1421   1.940       .  S
Al621       O631   1.883       .  S
Al621       O630   1.783       .  S
C622        O635   1.277       .  A
C622        C732   1.465       .  S
O623        C633   1.270       .  A
O623       Al625   1.927       .  S
O624        C637   1.271       .  A
O624       Al634   1.928       .  S
Al625       O638   1.888       .  S
Al625       O635   1.909       .  S
Al625       O630   1.759       .  S
O626        C633   1.255       .  A
O626       Al634   1.888       .  S
O627       C1428   1.277       .  A
O627       Al634   1.909       .  S
O628       C1410   1.264       .  A
O628       Al634   1.965       .  S
O629        C636   1.282       .  A
O629      Al1413   1.940       .  S
O630       Al634   1.759       .  S
O631        C632   1.242       .  A
C633        C680   1.475       .  S
C636       O1419   1.277       .  A
C636       C1502   1.465   1_545  S
C637        O638   1.255       .  A
C637        C702   1.476       .  S
O639        C654   1.264       .  A
O639       Al647   1.965       .  S
C640        O650   1.264       .  A
C640        O641   1.242       .  A
O641       Al643   1.883       .  S
O642        C644   1.282       .  A
O642      Al2227   1.940       .  S
Al643      O2226   1.940       .  S
Al643       O651   1.940   1_455  S
Al643      O2237   1.883   1_455  S
Al643       O652   1.783       .  S
C644        O657   1.277       .  A
C644        C754   1.465       .  S
O645       C2239   1.271       .  A
O645       Al647   1.928       .  S
O646       C2243   1.270   1_455  A
O646       Al656   1.927       .  S
Al647       O660   1.888       .  S
Al647       O657   1.909       .  S
Al647      O2236   1.759       .  S
O648        C655   1.255       .  A
O648       Al656   1.888       .  S
O649        C658   1.277       .  A
O649       Al656   1.909       .  S
O650       Al656   1.965       .  S
O651        C658   1.282   1_655  A
O652      Al2231   1.759   1_455  S
O652       Al656   1.759       .  S
O653        C654   1.242       .  A
O653      Al2227   1.883       .  S
C654        C677   1.476       .  S
C655       O2229   1.271   1_455  A
C659       O2230   1.270       .  A
C659        O660   1.255       .  A
O661        C676   1.277       .  A
O661       Al669   1.908       .  S
C662        O672   1.277       .  A
C662        O663   1.282       .  A
C662        C772   1.465       .  S
O663       Al665   1.940       .  S
O664        C666   1.242       .  A
O664       Al665   1.883       .  S
Al665       O673   1.882       .  S
Al665       O675   1.940       .  S
Al665       O674   1.783       .  S
C666        O679   1.264       .  A
O667        C677   1.255       .  A
O667       Al669   1.889       .  S
O668        C681   1.255       .  A
O668       Al678   1.889       .  S
Al669       O682   1.928       .  S
Al669       O679   1.965       .  S
Al669       O674   1.759       .  S
O670        C677   1.270       .  A
O670       Al678   1.927       .  S
O671        C680   1.264       .  A
O671       Al678   1.965       .  S
O672       Al678   1.908       .  S
O673        C680   1.242       .  A
O674       Al678   1.759       .  S
O675        C676   1.282       .  A
C676        C698   1.465       .  S
C681        O682   1.271       .  A
O683        C698   1.277       .  A
O683       Al691   1.908       .  S
C684        O694   1.277       .  A
C684        O685   1.282       .  A
C684        C786   1.465       .  S
O685       Al687   1.940       .  S
O686        C688   1.242       .  A
O686       Al687   1.883       .  S
Al687       O695   1.883       .  S
Al687       O697   1.940       .  S
Al687       O696   1.783       .  S
C688        O701   1.264       .  A
C688        C769   1.476       .  S
O689        C699   1.255       .  A
O689       Al691   1.888       .  S
O690        C703   1.255       .  A
O690       Al700   1.889       .  S
Al691       O704   1.928       .  S
Al691       O701   1.965       .  S
Al691       O696   1.759       .  S
O692        C699   1.271       .  A
O692       Al700   1.928       .  S
O693        C702   1.264       .  A
O693       Al700   1.965       .  S
O694       Al700   1.908       .  S
O695        C702   1.242       .  A
O696       Al700   1.759       .  S
O697        C698   1.282       .  A
C703        O704   1.271       .  A
O705       C1512   1.264       .  A
O705       Al713   1.965   1_565  S
C706        O716   1.264       .  A
C706        O707   1.242       .  A
O707       Al709   1.883   1_545  S
O708        C710   1.282       .  A
O708      Al1501   1.940       .  S
Al709      O1500   1.940       .  S
Al709      O1511   1.883       .  S
Al709       O718   1.783   1_565  S
C710       O1515   1.277       .  A
C710       C1428   1.465       .  S
O711        C721   1.271       .  A
O711       Al713   1.928       .  S
O712        C725   1.270       .  A
Al713       O726   1.888       .  S
Al713       O723   1.908   1_545  S
Al713       O718   1.759       .  S
O714        C721   1.255       .  A
O714       Al722   1.888       .  S
O715        C724   1.277       .  A
O716       Al722   1.965       .  S
O717        C724   1.282   1_565  A
O718       Al722   1.759       .  S
O719        C720   1.242       .  A
O719      Al1501   1.883       .  S
C720       O1497   1.264       .  A
C720        C791   1.476       .  S
O723       C1502   1.277       .  A
C724        C746   1.466       .  S
O727        C742   1.264       .  A
O727       Al735   1.965       .  S
C728        O738   1.264       .  A
C728        O729   1.242       .  A
O729       Al731   1.883       .  S
O730        C732   1.282       .  A
O730      Al1523   1.940       .  S
Al731      O1522   1.940       .  S
Al731       O739   1.940   1_545  S
Al731      O1533   1.882   1_545  S
Al731       O740   1.783       .  S
C732        O745   1.277       .  A
O733       C1535   1.271       .  A
O733       Al735   1.928       .  S
O734       C1539   1.270   1_545  A
O734       Al744   1.927       .  S
Al735       O748   1.888       .  S
Al735       O745   1.909       .  S
Al735      O1532   1.759       .  S
O736        C743   1.255       .  A
O736       Al744   1.888       .  S
O737        C746   1.277       .  A
O737       Al744   1.909       .  S
O738       Al744   1.965       .  S
O739        C746   1.282   1_565  A
O740      Al1527   1.759   1_545  S
O740       Al744   1.759       .  S
O741        C742   1.242       .  A
O741      Al1523   1.882       .  S
C742        C787   1.476       .  S
C743       O1525   1.271   1_545  A
C747       O1526   1.270       .  A
C747        O748   1.255       .  A
O749        C764   1.264       .  A
O749       Al757   1.965       .  S
C750       O2344   1.264       .  A
C750        O751   1.242       .  A
O751      Al2337   1.883       .  S
O752        C754   1.282       .  A
Al753      O2335   1.883       .  S
Al753      O2345   1.940       .  S
Al753       O763   1.883       .  S
Al753       O762   1.783       .  S
C754        O767   1.277       .  A
O755        C765   1.271       .  A
O756        C769   1.270       .  A
O756       Al766   1.927       .  S
Al757       O770   1.888       .  S
Al757       O762   1.759       .  S
O758       Al766   1.888       .  S
O759       C2352   1.277       .  A
O759       Al766   1.909       .  S
O760       C2334   1.264       .  A
O760       Al766   1.965       .  S
O761        C768   1.282       .  A
O761      Al2337   1.940       .  S
O762       Al766   1.759       .  S
O763        C764   1.242       .  A
C765        C790   1.476       .  S
C768       O2343   1.277       .  A
C768       C2198   1.466   1_455  S
C769        O770   1.255       .  A
O771        C786   1.277       .  A
C772        O782   1.277       .  A
C772        O773   1.282       .  A
O773       Al775   1.940       .  S
O774        C776   1.242       .  A
O774       Al775   1.883       .  S
Al775       O783   1.882       .  S
Al775       O784   1.783       .  S
C776        O789   1.264       .  A
O777        C787   1.255       .  A
O777       Al779   1.889       .  S
O778       Al788   1.889       .  S
Al779       O792   1.928       .  S
Al779       O789   1.965       .  S
Al779       O784   1.759       .  S
O780        C787   1.271       .  A
O780       Al788   1.928       .  S
O781        C790   1.264       .  A
O781       Al788   1.965       .  S
O782       Al788   1.909       .  S
O783        C790   1.242       .  A
O784       Al788   1.759       .  S
O785        C786   1.282       .  A
O793        C808   1.277       .  A
O793      Al1197   1.908       .  S
C794        O804   1.277       .  A
C794        C962   1.465   1_545  S
O796        C798   1.242       .  A
O796       Al797   1.883   1_565  S
Al797      O1203   1.940   1_554  S
Al797       O806   1.783   1_545  S
C798        O811   1.264       .  A
C798       C1143   1.476       .  S
O799        C809   1.255       .  A
O799       Al801   1.888       .  S
O800       C1209   1.255   1_554  A
O800       Al810   1.889       .  S
Al801      O1189   1.908   1_554  S
Al801       O814   1.928   1_554  S
Al801       O811   1.965       .  S
Al801       O806   1.759       .  S
O802        C809   1.270       .  A
O802       Al810   1.927       .  S
O803       Al810   1.965   1_545  S
O804       Al810   1.908   1_545  S
O805        C812   1.242       .  A
O806       Al810   1.759       .  S
O807        C808   1.282   1_545  A
O807      Al1193   1.940       .  S
C808        C830   1.465       .  S
C809       C1036   1.476       .  S
C812        C875   1.476       .  S
C813       O1196   1.255       .  A
C813       O1210   1.270       .  A
C813       C1146   1.476       .  S
O814       C1209   1.270       .  A
O815        C830   1.277       .  A
O815       Al823   1.908       .  S
C816        O826   1.277       .  A
C816        O817   1.282       .  A
C816        C948   1.465       .  S
O817       Al819   1.940       .  S
O818        C820   1.242       .  A
Al819       O827   1.882       .  S
Al819       O828   1.783       .  S
C820        O833   1.264       .  A
C820       C1011   1.476       .  S
O821        C831   1.255       .  A
O821       Al823   1.888       .  S
O822        C835   1.255       .  A
O822       Al832   1.889       .  S
Al823       O836   1.928       .  S
Al823       O833   1.965       .  S
O824       Al832   1.927       .  S
O825        C834   1.264       .  A
O825       Al832   1.965       .  S
O826       Al832   1.909       .  S
O827        C834   1.242       .  A
O828       Al832   1.759       .  S
O829        C830   1.282   1_545  A
C831       C1028   1.475       .  S
C834        C879   1.475       .  S
C835       C1102   1.476       .  S
O837       C2436   1.277   1_455  A
O837       Al845   1.908       .  S
C838        O848   1.277       .  A
C838        O839   1.282   1_455  A
C838        C940   1.465       .  S
O839      Al1237   1.940       .  S
O840        C842   1.242       .  A
O840      Al2425   1.883       .  S
Al841      O1235   1.940   1_554  S
Al841      O2424   1.883       .  S
Al841       O849   1.882   1_655  S
Al841      O2435   1.940       .  S
Al841       O850   1.783   1_655  S
C842       O2439   1.264       .  A
C842       C1121   1.475       .  S
O843       C1249   1.255   1_554  A
O843       Al845   1.888       .  S
O844        C857   1.255       .  A
O844       Al854   1.889       .  S
Al845       O858   1.928       .  S
Al845       O855   1.964   1_455  S
Al845       O850   1.759       .  S
O846       C1249   1.271       .  A
O846       Al854   1.928   1_556  S
O847        C856   1.264       .  A
O847       Al854   1.965       .  S
O848      Al1250   1.909       .  S
O849        C856   1.242       .  A
O850       Al854   1.759       .  S
O851        C852   1.282       .  A
O851      Al2425   1.940       .  S
C852       O2421   1.277       .  A
C852        C882   1.465       .  S
C853       O1239   1.255       .  A
C853       O1242   1.271       .  A
C853        C860   1.476       .  S
Al854      O1244   1.909   1_554  S
O855       C2426   1.264       .  A
C856       C1051   1.476       .  S
C857        O858   1.270       .  A
C857        C904   1.476       .  S
O859        C874   1.264       .  A
O859       Al867   1.965       .  S
C860        O870   1.264       .  A
C860        O861   1.242       .  A
O861       Al863   1.882       .  S
O862        C864   1.282       .  A
O862      Al1259   1.940   1_554  S
Al863      O1258   1.940       .  S
Al863       O871   1.940       .  S
Al863       O873   1.883       .  S
Al863       O872   1.783       .  S
C864        O877   1.277       .  A
C864        C908   1.465       .  S
O865        C875   1.270       .  A
O865      Al1263   1.928   1_554  S
O866        C879   1.270       .  A
O866       Al876   1.927       .  S
Al867      O1261   1.928       .  S
Al867       O880   1.888       .  S
Al867      O1273   1.909       .  S
Al867       O872   1.759       .  S
O868       C1271   1.255       .  A
O868       Al876   1.888       .  S
O869        C878   1.277       .  A
O869       Al876   1.909       .  S
O870       Al876   1.965       .  S
O871        C878   1.282       .  A
O872       Al876   1.759       .  S
O873        C874   1.242       .  A
C874       C1095   1.476       .  S
C875       O1264   1.255   1_554  A
O877      Al1263   1.909   1_554  S
C878        C974   1.465       .  S
C879        O880   1.255       .  A
O881        C896   1.277       .  A
O881       Al889   1.908       .  S
C882        O892   1.277       .  A
C882       O2467   1.282       .  A
O883       C2466   1.282       .  A
O883      Al2469   1.940       .  S
O884        C886   1.242       .  A
O884       Al885   1.883       .  S
Al885      O2467   1.940       .  S
Al885      O2477   1.883       .  S
Al885       O895   1.940       .  S
Al885       O894   1.783       .  S
C886        O899   1.264       .  A
C886       C1055   1.475       .  S
O887        C897   1.255       .  A
O887       Al889   1.888       .  S
O888        C901   1.255       .  A
O888       Al898   1.889       .  S
Al889       O902   1.928       .  S
Al889       O899   1.964       .  S
Al889       O894   1.759       .  S
O890        C897   1.271       .  A
O890       Al898   1.928       .  S
O891       C2484   1.264       .  A
O891       Al898   1.965       .  S
O892       Al898   1.908       .  S
O893        C900   1.242       .  A
O893      Al2469   1.883       .  S
O894       Al898   1.759       .  S
O895        C896   1.282       .  A
C896        C926   1.465       .  S
C897       C1124   1.476       .  S
C900       O2475   1.264       .  A
C900        C989   1.476       .  S
C901        O902   1.271       .  A
C901       C1014   1.476       .  S
O903        C918   1.264       .  A
O903       Al911   1.965       .  S
C904        O914   1.264       .  A
C904        O905   1.242       .  A
O905       Al907   1.883       .  S
O906        C908   1.282       .  A
O906       Al907   1.940       .  S
Al907       O915   1.940       .  S
Al907       O917   1.883       .  S
Al907       O916   1.783       .  S
C908        O921   1.277       .  A
O909        C919   1.270       .  A
O909       Al911   1.927       .  S
O910        C923   1.271       .  A
O910       Al920   1.928       .  S
Al911       O924   1.888       .  S
Al911       O921   1.908       .  S
Al911       O916   1.759       .  S
O912        C919   1.255       .  A
O912       Al920   1.888       .  S
O913        C922   1.277       .  A
O913       Al920   1.908       .  S
O914       Al920   1.965       .  S
O915        C922   1.282       .  A
O916       Al920   1.759       .  S
O917        C918   1.242       .  A
C918        C967   1.476       .  S
C919       C1172   1.475       .  S
C922        C988   1.466       .  S
C923        O924   1.255       .  A
C923       C1062   1.476       .  S
O925        C940   1.277       .  A
O925       Al933   1.909       .  S
C926        O936   1.277       .  A
C926        O927   1.282       .  A
O927       Al929   1.940       .  S
O928        C930   1.242       .  A
O928      Al2513   1.882       .  S
Al929      O2512   1.882       .  S
Al929       O937   1.883       .  S
Al929      O2523   1.940       .  S
Al929       O938   1.783       .  S
C930        O943   1.264       .  A
C930        C985   1.475       .  S
O931        C941   1.255       .  A
O931       Al933   1.889       .  S
O932        C945   1.255       .  A
O932       Al942   1.889       .  S
Al933       O946   1.927       .  S
Al933       O943   1.965       .  S
Al933      O2522   1.759       .  S
O934       C2525   1.271       .  A
O934       Al942   1.928       .  S
O935        C944   1.264       .  A
O935       Al942   1.965       .  S
O936       Al942   1.908       .  S
O937        C944   1.242       .  A
O938      Al2517   1.759       .  S
O938       Al942   1.759       .  S
O939        C940   1.282   1_655  A
O939      Al2513   1.940   1_655  S
C941       O2518   1.271   1_455  A
C941       C1006   1.476       .  S
C944       C1117   1.476       .  S
C945       O2530   1.270       .  A
C945       C1160   1.476       .  S
O946       C2529   1.270   1_455  A
O947       Al955   1.908       .  S
C948        O958   1.277       .  A
C948        O949   1.282       .  A
O949       Al951   1.940       .  S
O950        C952   1.242       .  A
Al951       O959   1.882       .  S
Al951       O960   1.783       .  S
C952       C1007   1.475       .  S
O953        C963   1.255       .  A
O953       Al955   1.889       .  S
O954        C967   1.255       .  A
O954       Al964   1.889       .  S
Al955       O968   1.928       .  S
Al955       O965   1.965       .  S
Al955       O960   1.759       .  S
O956        C963   1.270       .  A
O956       Al964   1.927       .  S
O957        C966   1.264       .  A
O957       Al964   1.965       .  S
O958       Al964   1.909       .  S
O959        C966   1.242       .  A
O960       Al964   1.759       .  S
O961        C962   1.282       .  A
C963        C984   1.476       .  S
C966       C1139   1.476       .  S
C967        O968   1.270       .  A
O969        C984   1.264       .  A
O969       Al977   1.965       .  S
C970        O980   1.264       .  A
C970        O971   1.242       .  A
C970       C1099   1.476       .  S
O971       Al973   1.883       .  S
O972        C974   1.282       .  A
O972       Al973   1.940       .  S
Al973       O981   1.940       .  S
Al973       O983   1.882       .  S
Al973       O982   1.783       .  S
C974        O987   1.277       .  A
O975        C985   1.270       .  A
O975       Al977   1.927       .  S
O976        C989   1.270       .  A
O976       Al986   1.928       .  S
Al977       O990   1.888       .  S
Al977       O987   1.909       .  S
Al977       O982   1.759       .  S
O978        C985   1.255       .  A
O978       Al986   1.888       .  S
O979        C988   1.277       .  A
O979       Al986   1.909       .  S
O980       Al986   1.965       .  S
O981        C988   1.282       .  A
O982       Al986   1.759       .  S
O983        C984   1.242       .  A
C989        O990   1.255       .  A
O991       C1006   1.264       .  A
O991       Al999   1.965       .  S
C992       O2586   1.264       .  A
C992        O993   1.242       .  A
C992       C1077   1.476       .  S
O993      Al2579   1.883       .  S
O994        C996   1.282   1_655  A
O994       Al995   1.940       .  S
Al995      O2577   1.883       .  S
Al995      O2587   1.940       .  S
Al995      O1005   1.883   1_655  S
Al995      O1004   1.783   1_655  S
C996       O1009   1.277       .  A
C996       C1054   1.466       .  S
O997       C1007   1.271       .  A
O997       Al999   1.928       .  S
O998       C1011   1.271       .  A
O998      Al1008   1.928       .  S
Al999      O1012   1.888       .  S
Al999      O1009   1.909       .  S
Al999      O1004   1.759       .  S
O1000      C1007   1.255       .  A
O1000     Al1008   1.888       .  S
O1001      C2594   1.277   1_455  A
O1001     Al1008   1.908       .  S
O1002      C2576   1.264       .  A
O1002     Al1008   1.965   1_655  S
O1003      C1010   1.282       .  A
O1003     Al2579   1.940       .  S
O1004     Al1008   1.759       .  S
O1005      C1006   1.242       .  A
C1010      O2585   1.277       .  A
C1010      C2748   1.465       .  S
C1011      O1012   1.255       .  A
O1013      C1028   1.264       .  A
O1013     Al1021   1.965       .  S
C1014      O1015   1.242       .  A
O1016      C1018   1.282   1_545  A
O1016     Al1017   1.940       .  S
Al1017     O1027   1.883   1_545  S
Al1017     O1026   1.783   1_545  S
C1018      O1031   1.277       .  A
C1018      C1128   1.465       .  S
O1019      C1029   1.270       .  A
O1019     Al1021   1.927       .  S
O1020      C1033   1.270       .  A
O1020     Al1030   1.928       .  S
Al1021     O1034   1.888       .  S
Al1021     O1031   1.909       .  S
Al1021     O1026   1.759       .  S
O1022      C1029   1.255       .  A
O1022     Al1030   1.888       .  S
O1023     Al1030   1.909   1_545  S
O1024     Al1030   1.965   1_545  S
O1025      C1032   1.282       .  A
O1026     Al1030   1.759       .  S
O1027      C1028   1.242       .  A
C1029      C1076   1.475       .  S
C1033      O1034   1.255       .  A
C1033      C1098   1.476       .  S
O1035      C1050   1.264       .  A
O1035     Al1043   1.965       .  S
C1036      O1046   1.264       .  A
C1036      O1037   1.242       .  A
O1037     Al1039   1.883       .  S
O1038      C1040   1.282       .  A
O1038     Al2623   1.940       .  S
Al1039     O2622   1.940       .  S
Al1039     O1047   1.940   1_455  S
Al1039     O2633   1.883   1_455  S
Al1039     O1048   1.783       .  S
C1040      O1053   1.277       .  A
C1040      C1150   1.465       .  S
O1041      C2635   1.271       .  A
O1041     Al1043   1.928       .  S
O1042      C2639   1.270   1_455  A
O1042     Al1052   1.927       .  S
Al1043     O1056   1.888       .  S
Al1043     O1053   1.909       .  S
Al1043     O2632   1.759       .  S
O1044      C1051   1.255       .  A
O1044     Al1052   1.888       .  S
O1045      C1054   1.277       .  A
O1045     Al1052   1.909       .  S
O1046     Al1052   1.965       .  S
O1047      C1054   1.282   1_655  A
O1048     Al2627   1.759   1_455  S
O1048     Al1052   1.759       .  S
O1049      C1050   1.242       .  A
O1049     Al2623   1.883       .  S
C1050      C1073   1.476       .  S
C1051      O2625   1.271   1_455  A
C1055      O2626   1.270       .  A
C1055      O1056   1.255       .  A
O1057      C1072   1.277       .  A
O1057     Al1065   1.908       .  S
C1058      O1068   1.277       .  A
C1058      O1059   1.282       .  A
C1058      C1168   1.465       .  S
O1059     Al1061   1.940       .  S
O1060      C1062   1.242       .  A
O1060     Al1061   1.883       .  S
Al1061     O1069   1.882       .  S
Al1061     O1071   1.940       .  S
Al1061     O1070   1.783       .  S
C1062      O1075   1.264       .  A
O1063      C1073   1.255       .  A
O1063     Al1065   1.889       .  S
O1064      C1077   1.255       .  A
O1064     Al1074   1.889       .  S
Al1065     O1078   1.928       .  S
Al1065     O1075   1.965       .  S
Al1065     O1070   1.759       .  S
O1066      C1073   1.270       .  A
O1066     Al1074   1.927       .  S
O1067      C1076   1.264       .  A
O1067     Al1074   1.965       .  S
O1068     Al1074   1.908       .  S
O1069      C1076   1.242       .  A
O1070     Al1074   1.759       .  S
O1071      C1072   1.282       .  A
C1072      C1094   1.465       .  S
C1077      O1078   1.270       .  A
O1079      C1094   1.277       .  A
O1079     Al1087   1.908       .  S
C1080      O1090   1.277       .  A
C1080      O1081   1.282       .  A
C1080      C1182   1.465       .  S
O1081     Al1083   1.940       .  S
O1082      C1084   1.242       .  A
O1082     Al1083   1.883       .  S
Al1083     O1091   1.883       .  S
Al1083     O1093   1.940       .  S
Al1083     O1092   1.783       .  S
C1084      O1097   1.264       .  A
C1084      C1165   1.475       .  S
O1085      C1095   1.255       .  A
O1085     Al1087   1.888       .  S
O1086      C1099   1.255       .  A
O1086     Al1096   1.889       .  S
Al1087     O1100   1.928       .  S
Al1087     O1097   1.964       .  S
Al1087     O1092   1.759       .  S
O1088      C1095   1.271       .  A
O1088     Al1096   1.928       .  S
O1089      C1098   1.264       .  A
O1089     Al1096   1.965       .  S
O1090     Al1096   1.908       .  S
O1091      C1098   1.242       .  A
O1092     Al1096   1.759       .  S
O1093      C1094   1.282       .  A
C1099      O1100   1.271       .  A
O1101     Al1109   1.965       .  S
C1102      O1112   1.264       .  A
C1102      O1103   1.242       .  A
O1103     Al1105   1.883       .  S
O1104      C1106   1.282       .  A
Al1105     O1509   1.940       .  S
Al1105     O1114   1.783       .  S
O1107      C1117   1.271       .  A
O1107     Al1109   1.928       .  S
O1108      C1121   1.270       .  A
O1108     Al1514   1.927   1_554  S
Al1109     O1122   1.888       .  S
Al1109     O1119   1.908       .  S
Al1109     O1114   1.759       .  S
O1110      C1117   1.255       .  A
O1110     Al1118   1.888       .  S
O1111      C1120   1.277       .  A
O1111     Al1514   1.909   1_554  S
O1112     Al1118   1.965       .  S
O1113      C1120   1.282       .  A
O1113     Al1501   1.940   1_554  S
O1114     Al1118   1.759       .  S
O1115      C1116   1.242       .  A
C1116      C1187   1.476       .  S
Al1118     O1504   1.927       .  S
Al1118     O1507   1.909       .  S
C1120      C1142   1.466       .  S
C1121      O1518   1.255   1_554  A
O1122      C1517   1.255       .  A
O1123      C1138   1.264       .  A
O1123     Al1131   1.965       .  S
C1124      O1134   1.264       .  A
C1124      O1125   1.242       .  A
O1125     Al1127   1.883       .  S
O1126      C1128   1.282   1_545  A
Al1127     O1135   1.940       .  S
Al1127     O1136   1.783       .  S
C1128      O1141   1.277       .  A
O1129     Al1131   1.928       .  S
O1130     Al1140   1.927       .  S
Al1131     O1144   1.888       .  S
Al1131     O1141   1.909       .  S
O1132      C1139   1.255       .  A
O1132     Al1140   1.888       .  S
O1133      C1142   1.277       .  A
O1133     Al1140   1.909       .  S
O1134     Al1140   1.965       .  S
O1135      C1142   1.282       .  A
O1136     Al1140   1.759       .  S
O1137      C1138   1.242       .  A
C1138      C1183   1.476       .  S
C1143      O1144   1.255       .  A
O1145      C1160   1.264       .  A
O1145     Al1153   1.965       .  S
C1146      O2740   1.264       .  A
C1146      O1147   1.242       .  A
O1147     Al2733   1.883       .  S
O1148      C1150   1.282       .  A
O1148     Al1545   1.940   1_554  S
Al1149     O2731   1.883       .  S
Al1149     O1544   1.940       .  S
Al1149     O2741   1.940       .  S
Al1149     O1159   1.883       .  S
Al1149     O1158   1.783       .  S
C1150      O1163   1.277       .  A
O1151      C1161   1.271       .  A
O1151     Al1549   1.927   1_554  S
O1152      C1165   1.270       .  A
O1152     Al1162   1.927       .  S
Al1153     O1547   1.928       .  S
Al1153     O1166   1.888       .  S
Al1153     O1559   1.909       .  S
Al1153     O1158   1.759       .  S
O1154      C1557   1.255       .  A
O1154     Al1162   1.888       .  S
O1155      C2748   1.277       .  A
O1155     Al1162   1.909       .  S
O1156      C2730   1.264       .  A
O1156     Al1162   1.965       .  S
O1157      C1164   1.282       .  A
O1157     Al2733   1.940       .  S
O1158     Al1162   1.759       .  S
O1159      C1160   1.242       .  A
C1161      O1550   1.255   1_554  A
C1161      C1186   1.476       .  S
O1163     Al1549   1.909   1_554  S
C1164      O2739   1.277       .  A
C1164      C2594   1.465   1_455  S
C1165      O1166   1.255       .  A
O1167      C1182   1.277       .  A
O1167     Al1571   1.908       .  S
C1168      O1178   1.277       .  A
C1168      O1169   1.282       .  A
O1169     Al1171   1.940       .  S
O1170      C1172   1.242       .  A
O1170     Al1171   1.883       .  S
Al1171     O1179   1.882       .  S
Al1171     O1577   1.940   1_554  S
Al1171     O1180   1.783       .  S
C1172      O1185   1.264       .  A
O1173      C1183   1.255       .  A
O1173     Al1175   1.889       .  S
O1174      C1583   1.255   1_554  A
O1174     Al1184   1.889       .  S
Al1175     O1563   1.908   1_554  S
Al1175     O1188   1.928   1_554  S
Al1175     O1185   1.965       .  S
Al1175     O1180   1.759       .  S
O1176      C1183   1.271       .  A
O1176     Al1184   1.928       .  S
O1177      C1186   1.264       .  A
O1177     Al1184   1.965       .  S
O1178     Al1184   1.909       .  S
O1179      C1186   1.242       .  A
O1180     Al1184   1.759       .  S
O1181      C1182   1.282       .  A
O1181     Al1567   1.940       .  S
C1187      O1570   1.255       .  A
C1187      O1584   1.270       .  A
O1188      C1583   1.270       .  A
O1189      C1204   1.277       .  A
C1190      O1200   1.277       .  A
C1190      C1358   1.465   1_545  S
O1192      C1194   1.242       .  A
O1192     Al1193   1.883   1_565  S
Al1193     O1202   1.783   1_545  S
C1194      O1207   1.264       .  A
C1194      C1539   1.476       .  S
O1195      C1205   1.255       .  A
O1195     Al1197   1.888       .  S
O1196     Al1206   1.889       .  S
Al1197     O1210   1.928       .  S
Al1197     O1207   1.965       .  S
Al1197     O1202   1.759       .  S
O1198      C1205   1.271       .  A
O1198     Al1206   1.927       .  S
O1199     Al1206   1.965   1_545  S
O1200     Al1206   1.908   1_545  S
O1201      C1208   1.242       .  A
O1202     Al1206   1.759       .  S
O1203      C1204   1.282   1_545  A
C1204      C1226   1.465       .  S
C1205      C1432   1.476       .  S
C1208      C1271   1.476       .  S
C1209      C1542   1.476       .  S
O1211      C1226   1.277       .  A
O1211     Al1219   1.908       .  S
C1212      O1222   1.277       .  A
C1212      O1213   1.282       .  A
C1212      C1344   1.465       .  S
O1213     Al1215   1.940       .  S
O1214      C1216   1.242       .  A
Al1215     O1223   1.882       .  S
Al1215     O1224   1.783       .  S
C1216      O1229   1.264       .  A
C1216      C1407   1.476       .  S
O1217      C1227   1.255       .  A
O1217     Al1219   1.888       .  S
O1218      C1231   1.255       .  A
O1218     Al1228   1.889       .  S
Al1219     O1232   1.928       .  S
Al1219     O1229   1.965       .  S
O1220     Al1228   1.927       .  S
O1221      C1230   1.264       .  A
O1221     Al1228   1.965       .  S
O1222     Al1228   1.909       .  S
O1223      C1230   1.242       .  A
O1224     Al1228   1.759       .  S
O1225      C1226   1.282   1_545  A
C1227      C1424   1.475       .  S
C1230      C1275   1.475       .  S
C1231      C1498   1.476       .  S
O1233      C2832   1.277   1_455  A
O1233     Al1241   1.908       .  S
C1234      O1244   1.277       .  A
C1234      O1235   1.282   1_455  A
C1234      C1336   1.465       .  S
O1236      C1238   1.242       .  A
O1236     Al2821   1.883       .  S
Al1237     O2820   1.883       .  S
Al1237     O1245   1.882   1_655  S
Al1237     O2831   1.940       .  S
Al1237     O1246   1.783   1_655  S
C1238      O2835   1.264       .  A
C1238      C1517   1.475       .  S
O1239     Al1241   1.888       .  S
O1240      C1253   1.255       .  A
O1240     Al1250   1.889       .  S
Al1241     O1254   1.928       .  S
Al1241     O1251   1.964   1_455  S
Al1241     O1246   1.759       .  S
O1242     Al1250   1.928       .  S
O1243      C1252   1.264       .  A
O1243     Al1250   1.965       .  S
O1245      C1252   1.242       .  A
O1246     Al1250   1.759       .  S
O1247      C1248   1.282       .  A
O1247     Al2821   1.940       .  S
C1248      O2817   1.277       .  A
C1248      C1278   1.465       .  S
C1249      C1256   1.476       .  S
O1251      C2822   1.264       .  A
C1252      C1447   1.476       .  S
C1253      O1254   1.270       .  A
C1253      C1300   1.476       .  S
O1255      C1270   1.264       .  A
O1255     Al1263   1.965       .  S
C1256      O1266   1.264       .  A
C1256      O1257   1.242       .  A
O1257     Al1259   1.882       .  S
O1258      C1260   1.282       .  A
Al1259     O1267   1.940       .  S
Al1259     O1269   1.883       .  S
Al1259     O1268   1.783       .  S
C1260      O1273   1.277       .  A
C1260      C1304   1.465       .  S
O1261      C1271   1.270       .  A
O1262      C1275   1.270       .  A
O1262     Al1272   1.927       .  S
Al1263     O1276   1.888       .  S
Al1263     O1268   1.759       .  S
O1264     Al1272   1.888       .  S
O1265      C1274   1.277       .  A
O1265     Al1272   1.909       .  S
O1266     Al1272   1.965       .  S
O1267      C1274   1.282       .  A
O1268     Al1272   1.759       .  S
O1269      C1270   1.242       .  A
C1270      C1491   1.476       .  S
C1274      C1370   1.465       .  S
C1275      O1276   1.255       .  A
O1277      C1292   1.277       .  A
O1277     Al1285   1.908       .  S
C1278      O1288   1.277       .  A
C1278      O2863   1.282       .  A
O1279      C2862   1.282       .  A
O1279     Al2865   1.940       .  S
O1280      C1282   1.242       .  A
O1280     Al1281   1.883       .  S
Al1281     O2863   1.940       .  S
Al1281     O2873   1.883       .  S
Al1281     O1291   1.940       .  S
Al1281     O1290   1.783       .  S
C1282      O1295   1.264       .  A
C1282      C1451   1.475       .  S
O1283      C1293   1.255       .  A
O1283     Al1285   1.888       .  S
O1284      C1297   1.255       .  A
O1284     Al1294   1.889       .  S
Al1285     O1298   1.928       .  S
Al1285     O1295   1.964       .  S
Al1285     O1290   1.759       .  S
O1286      C1293   1.271       .  A
O1286     Al1294   1.928       .  S
O1287      C2880   1.264       .  A
O1287     Al1294   1.965       .  S
O1288     Al1294   1.908       .  S
O1289      C1296   1.242       .  A
O1289     Al2865   1.883       .  S
O1290     Al1294   1.759       .  S
O1291      C1292   1.282       .  A
C1292      C1322   1.465       .  S
C1293      C1520   1.476       .  S
C1296      O2871   1.264       .  A
C1296      C1385   1.476       .  S
C1297      O1298   1.271       .  A
C1297      C1410   1.476       .  S
O1299      C1314   1.264       .  A
O1299     Al1307   1.965       .  S
C1300      O1310   1.264       .  A
C1300      O1301   1.242       .  A
O1301     Al1303   1.883       .  S
O1302      C1304   1.282       .  A
O1302     Al1303   1.940       .  S
Al1303     O1311   1.940       .  S
Al1303     O1313   1.883       .  S
Al1303     O1312   1.783       .  S
C1304      O1317   1.277       .  A
O1305      C1315   1.271       .  A
O1305     Al1307   1.927       .  S
O1306      C1319   1.271       .  A
O1306     Al1316   1.928       .  S
Al1307     O1320   1.888       .  S
Al1307     O1317   1.908       .  S
Al1307     O1312   1.759       .  S
O1308      C1315   1.254       .  A
O1308     Al1316   1.888       .  S
O1309      C1318   1.277       .  A
O1309     Al1316   1.908       .  S
O1310     Al1316   1.965       .  S
O1311      C1318   1.282       .  A
O1312     Al1316   1.759       .  S
O1313      C1314   1.242       .  A
C1314      C1363   1.476       .  S
C1315      C1568   1.475       .  S
C1318      C1384   1.466       .  S
C1319      O1320   1.255       .  A
C1319      C1458   1.476       .  S
O1321      C1336   1.277       .  A
O1321     Al1329   1.909       .  S
C1322      O1332   1.277       .  A
C1322      O1323   1.282       .  A
O1323     Al1325   1.940       .  S
O1324      C1326   1.242       .  A
O1324     Al2909   1.882       .  S
Al1325     O2908   1.882       .  S
Al1325     O1333   1.883       .  S
Al1325     O2919   1.940       .  S
Al1325     O1334   1.783       .  S
C1326      O1339   1.264       .  A
C1326      C1381   1.475       .  S
O1327      C1337   1.255       .  A
O1327     Al1329   1.889       .  S
O1328      C1341   1.255       .  A
O1328     Al1338   1.889       .  S
Al1329     O1342   1.927       .  S
Al1329     O1339   1.965       .  S
Al1329     O2918   1.759       .  S
O1330      C2921   1.270       .  A
O1330     Al1338   1.928       .  S
O1331      C1340   1.264       .  A
O1331     Al1338   1.965       .  S
O1332     Al1338   1.908       .  S
O1333      C1340   1.242       .  A
O1334     Al2913   1.759       .  S
O1334     Al1338   1.759       .  S
O1335      C1336   1.282   1_655  A
O1335     Al2909   1.940   1_655  S
C1337      O2914   1.271   1_455  A
C1337      C1402   1.476       .  S
C1340      C1513   1.476       .  S
C1341      O2926   1.270       .  A
C1341      C1556   1.476       .  S
O1342      C2925   1.270   1_455  A
O1343     Al1351   1.908       .  S
C1344      O1354   1.277       .  A
C1344      O1345   1.282       .  A
O1345     Al1347   1.940       .  S
O1346      C1348   1.242       .  A
Al1347     O1355   1.882       .  S
Al1347     O1356   1.783       .  S
C1348      C1403   1.475       .  S
O1349      C1359   1.255       .  A
O1349     Al1351   1.889       .  S
O1350      C1363   1.255       .  A
O1350     Al1360   1.889       .  S
Al1351     O1364   1.928       .  S
Al1351     O1361   1.965       .  S
Al1351     O1356   1.759       .  S
O1352      C1359   1.270       .  A
O1352     Al1360   1.927       .  S
O1353      C1362   1.264       .  A
O1353     Al1360   1.965       .  S
O1354     Al1360   1.909       .  S
O1355      C1362   1.242       .  A
O1356     Al1360   1.759       .  S
O1357      C1358   1.282       .  A
C1359      C1380   1.476       .  S
C1362      C1535   1.476       .  S
C1363      O1364   1.270       .  A
O1365      C1380   1.264       .  A
O1365     Al1373   1.965       .  S
C1366      O1376   1.264       .  A
C1366      O1367   1.242       .  A
C1366      C1495   1.476       .  S
O1367     Al1369   1.883       .  S
O1368      C1370   1.282       .  A
O1368     Al1369   1.940       .  S
Al1369     O1377   1.940       .  S
Al1369     O1379   1.882       .  S
Al1369     O1378   1.783       .  S
C1370      O1383   1.277       .  A
O1371      C1381   1.270       .  A
O1371     Al1373   1.927       .  S
O1372      C1385   1.270       .  A
O1372     Al1382   1.928       .  S
Al1373     O1386   1.888       .  S
Al1373     O1383   1.909       .  S
Al1373     O1378   1.759       .  S
O1374      C1381   1.255       .  A
O1374     Al1382   1.888       .  S
O1375      C1384   1.277       .  A
O1375     Al1382   1.909       .  S
O1376     Al1382   1.965       .  S
O1377      C1384   1.282       .  A
O1378     Al1382   1.759       .  S
O1379      C1380   1.242       .  A
C1385      O1386   1.255       .  A
O1387      C1402   1.264       .  A
O1387     Al1395   1.965       .  S
C1388      O2982   1.264       .  A
C1388      O1389   1.242       .  A
C1388      C1473   1.476       .  S
O1389     Al2975   1.883       .  S
O1390      C1392   1.282   1_655  A
O1390     Al1391   1.940       .  S
Al1391     O2973   1.883       .  S
Al1391     O2983   1.940       .  S
Al1391     O1401   1.883   1_655  S
Al1391     O1400   1.783   1_655  S
C1392      O1405   1.277       .  A
C1392      C1450   1.466       .  S
O1393      C1403   1.271       .  A
O1393     Al1395   1.928       .  S
O1394      C1407   1.271       .  A
O1394     Al1404   1.928       .  S
Al1395     O1408   1.888       .  S
Al1395     O1405   1.909       .  S
Al1395     O1400   1.759       .  S
O1396      C1403   1.254       .  A
O1396     Al1404   1.888       .  S
O1397      C2990   1.277   1_455  A
O1397     Al1404   1.908       .  S
O1398      C2972   1.264       .  A
O1398     Al1404   1.965   1_655  S
O1399      C1406   1.282       .  A
O1399     Al2975   1.940       .  S
O1400     Al1404   1.759       .  S
O1401      C1402   1.242       .  A
C1406      O2981   1.277       .  A
C1406      C3144   1.465       .  S
C1407      O1408   1.255       .  A
O1409      C1424   1.264       .  A
O1409     Al1417   1.965       .  S
C1410      O1411   1.242       .  A
O1412      C1414   1.282   1_545  A
O1412     Al1413   1.940       .  S
Al1413     O1423   1.883   1_545  S
Al1413     O1422   1.783   1_545  S
C1414      O1427   1.277       .  A
C1414      C1524   1.465       .  S
O1415      C1425   1.270       .  A
O1415     Al1417   1.927       .  S
O1416      C1429   1.270       .  A
O1416     Al1426   1.928       .  S
Al1417     O1430   1.888       .  S
Al1417     O1427   1.909       .  S
Al1417     O1422   1.759       .  S
O1418      C1425   1.255       .  A
O1418     Al1426   1.888       .  S
O1419     Al1426   1.909   1_545  S
O1420     Al1426   1.965   1_545  S
O1421      C1428   1.282       .  A
O1422     Al1426   1.759       .  S
O1423      C1424   1.242       .  A
C1425      C1472   1.475       .  S
C1429      O1430   1.255       .  A
C1429      C1494   1.476       .  S
O1431      C1446   1.264       .  A
O1431     Al1439   1.965       .  S
C1432      O1442   1.264       .  A
C1432      O1433   1.242       .  A
O1433     Al1435   1.883       .  S
O1434      C1436   1.282       .  A
O1434     Al3019   1.940       .  S
Al1435     O3018   1.940       .  S
Al1435     O1443   1.940   1_455  S
Al1435     O3029   1.883   1_455  S
Al1435     O1444   1.783       .  S
C1436      O1449   1.277       .  A
C1436      C1546   1.465       .  S
O1437      C3031   1.271       .  A
O1437     Al1439   1.928       .  S
O1438      C3035   1.270   1_455  A
O1438     Al1448   1.927       .  S
Al1439     O1452   1.888       .  S
Al1439     O1449   1.909       .  S
Al1439     O3028   1.759       .  S
O1440      C1447   1.255       .  A
O1440     Al1448   1.888       .  S
O1441      C1450   1.277       .  A
O1441     Al1448   1.909       .  S
O1442     Al1448   1.965       .  S
O1443      C1450   1.282   1_655  A
O1444     Al3023   1.759   1_455  S
O1444     Al1448   1.759       .  S
O1445      C1446   1.242       .  A
O1445     Al3019   1.883       .  S
C1446      C1469   1.476       .  S
C1447      O3021   1.271   1_455  A
C1451      O3022   1.270       .  A
C1451      O1452   1.255       .  A
O1453      C1468   1.277       .  A
O1453     Al1461   1.908       .  S
C1454      O1464   1.277       .  A
C1454      O1455   1.282       .  A
C1454      C1564   1.465       .  S
O1455     Al1457   1.940       .  S
O1456      C1458   1.242       .  A
O1456     Al1457   1.883       .  S
Al1457     O1465   1.882       .  S
Al1457     O1467   1.940       .  S
Al1457     O1466   1.783       .  S
C1458      O1471   1.264       .  A
O1459      C1469   1.255       .  A
O1459     Al1461   1.889       .  S
O1460      C1473   1.255       .  A
O1460     Al1470   1.889       .  S
Al1461     O1474   1.928       .  S
Al1461     O1471   1.965       .  S
Al1461     O1466   1.759       .  S
O1462      C1469   1.270       .  A
O1462     Al1470   1.927       .  S
O1463      C1472   1.264       .  A
O1463     Al1470   1.965       .  S
O1464     Al1470   1.908       .  S
O1465      C1472   1.242       .  A
O1466     Al1470   1.759       .  S
O1467      C1468   1.282       .  A
C1468      C1490   1.465       .  S
C1473      O1474   1.270       .  A
O1475      C1490   1.277       .  A
O1475     Al1483   1.908       .  S
C1476      O1486   1.277       .  A
C1476      O1477   1.282       .  A
C1476      C1578   1.465       .  S
O1477     Al1479   1.940       .  S
O1478      C1480   1.242       .  A
O1478     Al1479   1.883       .  S
Al1479     O1487   1.883       .  S
Al1479     O1489   1.940       .  S
Al1479     O1488   1.783       .  S
C1480      O1493   1.264       .  A
C1480      C1561   1.475       .  S
O1481      C1491   1.255       .  A
O1481     Al1483   1.888       .  S
O1482      C1495   1.255       .  A
O1482     Al1492   1.889       .  S
Al1483     O1496   1.928       .  S
Al1483     O1493   1.964       .  S
Al1483     O1488   1.759       .  S
O1484      C1491   1.271       .  A
O1484     Al1492   1.928       .  S
O1485      C1494   1.264       .  A
O1485     Al1492   1.965       .  S
O1486     Al1492   1.908       .  S
O1487      C1494   1.242       .  A
O1488     Al1492   1.759       .  S
O1489      C1490   1.282       .  A
C1495      O1496   1.270       .  A
O1497     Al1505   1.965       .  S
C1498      O1508   1.264       .  A
C1498      O1499   1.242       .  A
O1499     Al1501   1.883       .  S
O1500      C1502   1.282       .  A
Al1501     O1510   1.783       .  S
O1503      C1513   1.271       .  A
O1503     Al1505   1.928       .  S
O1504      C1517   1.270       .  A
Al1505     O1518   1.888       .  S
Al1505     O1515   1.908       .  S
Al1505     O1510   1.759       .  S
O1506      C1513   1.255       .  A
O1506     Al1514   1.888       .  S
O1507      C1516   1.277       .  A
O1508     Al1514   1.965       .  S
O1509      C1516   1.282       .  A
O1510     Al1514   1.759       .  S
O1511      C1512   1.242       .  A
C1512      C1583   1.476       .  S
C1516      C1538   1.466       .  S
O1519      C1534   1.264       .  A
O1519     Al1527   1.965       .  S
C1520      O1530   1.264       .  A
C1520      O1521   1.242       .  A
O1521     Al1523   1.883       .  S
O1522      C1524   1.282   1_545  A
Al1523     O1531   1.940       .  S
Al1523     O1532   1.783       .  S
C1524      O1537   1.277       .  A
O1525     Al1527   1.928       .  S
O1526     Al1536   1.927       .  S
Al1527     O1540   1.888       .  S
Al1527     O1537   1.909       .  S
O1528      C1535   1.254       .  A
O1528     Al1536   1.888       .  S
O1529      C1538   1.277       .  A
O1529     Al1536   1.909       .  S
O1530     Al1536   1.965       .  S
O1531      C1538   1.282       .  A
O1532     Al1536   1.759       .  S
O1533      C1534   1.242       .  A
C1534      C1579   1.476       .  S
C1539      O1540   1.255       .  A
O1541      C1556   1.264       .  A
O1541     Al1549   1.965       .  S
C1542      O3136   1.264       .  A
C1542      O1543   1.242       .  A
O1543     Al3129   1.883       .  S
O1544      C1546   1.282       .  A
Al1545     O3127   1.883       .  S
Al1545     O3137   1.940       .  S
Al1545     O1555   1.883       .  S
Al1545     O1554   1.783       .  S
C1546      O1559   1.277       .  A
O1547      C1557   1.271       .  A
O1548      C1561   1.270       .  A
O1548     Al1558   1.927       .  S
Al1549     O1562   1.888       .  S
Al1549     O1554   1.759       .  S
O1550     Al1558   1.888       .  S
O1551      C3144   1.277       .  A
O1551     Al1558   1.909       .  S
O1552      C3126   1.264       .  A
O1552     Al1558   1.965       .  S
O1553      C1560   1.282       .  A
O1553     Al3129   1.940       .  S
O1554     Al1558   1.759       .  S
O1555      C1556   1.242       .  A
C1557      C1582   1.476       .  S
C1560      O3135   1.277       .  A
C1560      C2990   1.465   1_455  S
C1561      O1562   1.255       .  A
O1563      C1578   1.277       .  A
C1564      O1574   1.277       .  A
C1564      O1565   1.282       .  A
O1565     Al1567   1.940       .  S
O1566      C1568   1.242       .  A
O1566     Al1567   1.883       .  S
Al1567     O1575   1.882       .  S
Al1567     O1576   1.783       .  S
C1568      O1581   1.264       .  A
O1569      C1579   1.255       .  A
O1569     Al1571   1.889       .  S
O1570     Al1580   1.889       .  S
Al1571     O1584   1.928       .  S
Al1571     O1581   1.965       .  S
Al1571     O1576   1.759       .  S
O1572      C1579   1.271       .  A
O1572     Al1580   1.928       .  S
O1573      C1582   1.264       .  A
O1573     Al1580   1.965       .  S
O1574     Al1580   1.909       .  S
O1575      C1582   1.242       .  A
O1576     Al1580   1.759       .  S
O1577      C1578   1.282       .  A
O1585      C1600   1.277       .  A
O1585     Al1989   1.908       .  S
C1586      O1596   1.277       .  A
C1586      O2379   1.282       .  A
C1586      C1754   1.465       .  S
O1587      C2378   1.282       .  A
O1587     Al2381   1.940       .  S
O1588      C1590   1.242       .  A
O1588     Al1589   1.883       .  S
Al1589     O2379   1.940       .  S
Al1589     O2389   1.883       .  S
Al1589     O1995   1.940   1_554  S
Al1589     O1598   1.783       .  S
C1590      O1603   1.264       .  A
C1590      C1935   1.476       .  S
O1591      C1601   1.255       .  A
O1591     Al1593   1.888       .  S
O1592      C2001   1.255   1_554  A
O1592     Al1602   1.889       .  S
Al1593     O1981   1.908   1_554  S
Al1593     O1606   1.928   1_554  S
Al1593     O1603   1.965       .  S
Al1593     O1598   1.759       .  S
O1594      C1601   1.271       .  A
O1594     Al1602   1.927       .  S
O1595      C2396   1.264       .  A
O1595     Al1602   1.965       .  S
O1596     Al1602   1.908       .  S
O1597      C1604   1.242       .  A
O1597     Al2381   1.883       .  S
O1598     Al1602   1.759       .  S
O1599      C1600   1.282       .  A
O1599     Al1985   1.940       .  S
C1600      C1622   1.465       .  S
C1601      C1828   1.476       .  S
C1604      O2387   1.264       .  A
C1604      C1667   1.476       .  S
C1605      O1988   1.255       .  A
C1605      O2002   1.271       .  A
C1605      C1938   1.476       .  S
O1606      C2001   1.270       .  A
O1607      C1622   1.277       .  A
O1607     Al1615   1.908       .  S
C1608      O1618   1.277       .  A
C1608      O1609   1.282   1_545  A
C1608      C1740   1.465       .  S
O1609     Al1611   1.940       .  S
O1610      C1612   1.242       .  A
O1610     Al2403   1.883       .  S
Al1611     O2402   1.883       .  S
Al1611     O1619   1.882   1_565  S
Al1611     O2413   1.940   1_565  S
Al1611     O1620   1.783       .  S
C1612      O1625   1.264       .  A
C1612      C1803   1.476       .  S
O1613      C1623   1.255       .  A
O1613     Al1615   1.888       .  S
O1614      C1627   1.255       .  A
O1614     Al1624   1.889       .  S
Al1615     O1628   1.928       .  S
Al1615     O1625   1.965       .  S
Al1615     O2412   1.759       .  S
O1616      C2415   1.270   1_545  A
O1616     Al1624   1.927       .  S
O1617      C1626   1.264       .  A
O1617     Al1624   1.965       .  S
O1618     Al1624   1.909       .  S
O1619      C1626   1.242       .  A
O1620     Al2407   1.759       .  S
O1620     Al1624   1.759   1_565  S
O1621      C1622   1.282       .  A
O1621     Al2403   1.940       .  S
C1623      O2408   1.270       .  A
C1623      C1820   1.475       .  S
C1626      C1671   1.475       .  S
C1627      O2420   1.270   1_545  A
C1627      C1894   1.476       .  S
O1628      C2419   1.270       .  A
O1629     Al1637   1.908       .  S
C1630      O1640   1.277       .  A
C1630      O1631   1.282       .  A
C1630      C1732   1.465       .  S
O1631     Al2029   1.940       .  S
O1632      C1634   1.242       .  A
Al1633     O2027   1.940   1_554  S
Al1633     O1641   1.882       .  S
Al1633     O1642   1.783       .  S
C1634      C1913   1.475       .  S
O1635      C2041   1.255   1_554  A
O1635     Al1637   1.888       .  S
O1636      C1649   1.255       .  A
O1636     Al1646   1.889       .  S
Al1637     O1650   1.928       .  S
Al1637     O1647   1.964       .  S
Al1637     O1642   1.759       .  S
O1638      C2041   1.271       .  A
O1638     Al1646   1.928   1_556  S
O1639      C1648   1.264       .  A
O1639     Al1646   1.965       .  S
O1640     Al2042   1.909       .  S
O1641      C1648   1.242       .  A
O1642     Al1646   1.759       .  S
O1643      C1644   1.282       .  A
C1644      C1674   1.465   1_655  S
C1645      O2031   1.255       .  A
C1645      O2034   1.271       .  A
C1645      C1652   1.476       .  S
Al1646     O2036   1.909   1_554  S
C1648      C1843   1.476       .  S
C1649      O1650   1.270       .  A
C1649      C1696   1.476       .  S
O1651      C1666   1.264       .  A
O1651     Al1659   1.965       .  S
C1652      O1662   1.264       .  A
C1652      O1653   1.242       .  A
O1653     Al1655   1.882       .  S
O1654      C1656   1.282       .  A
O1654     Al2051   1.940   1_554  S
Al1655     O2050   1.940       .  S
Al1655     O1663   1.940       .  S
Al1655     O1665   1.883       .  S
Al1655     O1664   1.783       .  S
C1656      O1669   1.277       .  A
C1656      C1700   1.465       .  S
O1657      C1667   1.270       .  A
O1657     Al2055   1.928   1_554  S
O1658      C1671   1.271       .  A
O1658     Al1668   1.927       .  S
Al1659     O2053   1.928       .  S
Al1659     O1672   1.888       .  S
Al1659     O2065   1.909       .  S
Al1659     O1664   1.759       .  S
O1660      C2063   1.255       .  A
O1660     Al1668   1.888       .  S
O1661      C1670   1.277       .  A
O1661     Al1668   1.909       .  S
O1662     Al1668   1.965       .  S
O1663      C1670   1.282       .  A
O1664     Al1668   1.759       .  S
O1665      C1666   1.242       .  A
C1666      C1887   1.476       .  S
C1667      O2056   1.255   1_554  A
O1669     Al2055   1.909   1_554  S
C1670      C1766   1.465       .  S
C1671      O1672   1.255       .  A
O1673      C1688   1.277       .  A
O1673     Al1681   1.908       .  S
C1674      O1684   1.277       .  A
O1676      C1678   1.242       .  A
O1676     Al1677   1.883   1_655  S
Al1677     O1687   1.940       .  S
Al1677     O1686   1.783   1_455  S
C1678      O1691   1.264       .  A
C1678      C1847   1.475       .  S
O1679      C1689   1.255       .  A
O1679     Al1681   1.888       .  S
O1680      C1693   1.255       .  A
O1680     Al1690   1.889       .  S
Al1681     O1694   1.928       .  S
Al1681     O1691   1.964       .  S
Al1681     O1686   1.759       .  S
O1682      C1689   1.271       .  A
O1682     Al1690   1.928       .  S
O1683     Al1690   1.965   1_455  S
O1684     Al1690   1.908   1_455  S
O1685      C1692   1.242       .  A
O1686     Al1690   1.759       .  S
O1687      C1688   1.282   1_455  A
C1688      C1718   1.465       .  S
C1689      C1916   1.476       .  S
C1692      C1781   1.476       .  S
C1693      O1694   1.271       .  A
C1693      C1806   1.476       .  S
O1695      C1710   1.264       .  A
O1695     Al1703   1.965       .  S
C1696      O1706   1.264       .  A
C1696      O1697   1.242       .  A
O1697     Al1699   1.883       .  S
O1698      C1700   1.282       .  A
O1698     Al1699   1.940       .  S
Al1699     O1707   1.940       .  S
Al1699     O1709   1.883       .  S
Al1699     O1708   1.783       .  S
C1700      O1713   1.277       .  A
O1701      C1711   1.270       .  A
O1701     Al1703   1.927       .  S
O1702      C1715   1.271       .  A
O1702     Al1712   1.928       .  S
Al1703     O1716   1.888       .  S
Al1703     O1713   1.909       .  S
Al1703     O1708   1.759       .  S
O1704      C1711   1.254       .  A
O1704     Al1712   1.888       .  S
O1705      C1714   1.277       .  A
O1705     Al1712   1.908       .  S
O1706     Al1712   1.965       .  S
O1707      C1714   1.282       .  A
O1708     Al1712   1.759       .  S
O1709      C1710   1.242       .  A
C1710      C1759   1.476       .  S
C1711      C1964   1.475       .  S
C1714      C1780   1.466       .  S
C1715      O1716   1.255       .  A
C1715      C1854   1.476       .  S
O1717      C1732   1.277       .  A
O1717     Al1725   1.909       .  S
C1718      O1728   1.277       .  A
C1718      O1719   1.282   1_655  A
O1719     Al1721   1.940       .  S
O1720      C1722   1.242       .  A
Al1721     O1729   1.883   1_455  S
Al1721     O1730   1.783       .  S
C1722      O1735   1.264       .  A
C1722      C1777   1.475       .  S
O1723      C1733   1.255       .  A
O1723     Al1725   1.889       .  S
O1724      C1737   1.255       .  A
O1724     Al1734   1.889       .  S
Al1725     O1738   1.927       .  S
Al1725     O1735   1.965       .  S
O1726     Al1734   1.928       .  S
O1727      C1736   1.264       .  A
O1727     Al1734   1.965       .  S
O1728     Al1734   1.908       .  S
O1729      C1736   1.242       .  A
O1730     Al1734   1.759   1_455  S
O1731      C1732   1.282       .  A
C1733      C1798   1.476       .  S
C1736      C1909   1.476       .  S
C1737      C1952   1.476       .  S
O1739      C2546   1.277       .  A
O1739     Al1747   1.908   1_565  S
C1740      O1750   1.277       .  A
C1740      O1741   1.282   1_545  A
O1741     Al1743   1.940       .  S
O1742      C1744   1.242       .  A
O1742     Al2535   1.883       .  S
Al1743     O2534   1.882       .  S
Al1743     O1751   1.882   1_565  S
Al1743     O2545   1.940       .  S
Al1743     O1752   1.783   1_565  S
C1744      O2549   1.264       .  A
C1744      C1799   1.476       .  S
O1745      C1755   1.255       .  A
O1745     Al1747   1.889       .  S
O1746      C1759   1.255       .  A
O1746     Al1756   1.889       .  S
Al1747     O1760   1.928       .  S
Al1747     O1757   1.965   1_545  S
Al1747     O1752   1.759       .  S
O1748      C1755   1.270       .  A
O1748     Al1756   1.927       .  S
O1749      C1758   1.264       .  A
O1749     Al1756   1.965       .  S
O1750     Al1756   1.909       .  S
O1751      C1758   1.242       .  A
O1752     Al1756   1.759       .  S
O1753      C1754   1.282       .  A
O1753     Al2535   1.940       .  S
C1754      O2531   1.277       .  A
C1755      C1776   1.476       .  S
O1757      C2536   1.264       .  A
C1758      C1931   1.476       .  S
C1759      O1760   1.270       .  A
O1761      C1776   1.264       .  A
O1761     Al1769   1.965       .  S
C1762      O1772   1.264       .  A
C1762      O1763   1.242       .  A
C1762      C1891   1.476       .  S
O1763     Al1765   1.883       .  S
O1764      C1766   1.282       .  A
O1764     Al1765   1.940       .  S
Al1765     O1773   1.940       .  S
Al1765     O1775   1.883       .  S
Al1765     O1774   1.783       .  S
C1766      O1779   1.277       .  A
O1767      C1777   1.270       .  A
O1767     Al1769   1.927       .  S
O1768      C1781   1.271       .  A
O1768     Al1778   1.928       .  S
Al1769     O1782   1.888       .  S
Al1769     O1779   1.909       .  S
Al1769     O1774   1.759       .  S
O1770      C1777   1.254       .  A
O1770     Al1778   1.888       .  S
O1771      C1780   1.277       .  A
O1771     Al1778   1.908       .  S
O1772     Al1778   1.965       .  S
O1773      C1780   1.282       .  A
O1774     Al1778   1.759       .  S
O1775      C1776   1.242       .  A
C1781      O1782   1.255       .  A
O1783      C1798   1.264       .  A
O1783     Al1791   1.965       .  S
C1784      O1785   1.242       .  A
C1784      C1869   1.476       .  S
O1786      C1788   1.282       .  A
O1786     Al1787   1.940       .  S
Al1787     O1797   1.883       .  S
Al1787     O1796   1.783       .  S
C1788      O1801   1.277       .  A
C1788      C1846   1.465       .  S
O1789      C1799   1.271       .  A
O1789     Al1791   1.928       .  S
O1790      C1803   1.271       .  A
O1790     Al1800   1.928       .  S
Al1791     O1804   1.888       .  S
Al1791     O1801   1.909       .  S
Al1791     O1796   1.759       .  S
O1792      C1799   1.255       .  A
O1792     Al1800   1.888       .  S
O1793     Al1800   1.908       .  S
O1794     Al1800   1.965       .  S
O1795      C1802   1.282       .  A
O1796     Al1800   1.759       .  S
O1797      C1798   1.242       .  A
C1803      O1804   1.255       .  A
O1805      C1820   1.264       .  A
O1805     Al1813   1.965       .  S
C1806      O2608   1.264       .  A
C1806      O1807   1.242       .  A
O1807     Al2601   1.883       .  S
O1808      C1810   1.282       .  A
O1808     Al1809   1.940       .  S
Al1809     O2599   1.883       .  S
Al1809     O2609   1.940       .  S
Al1809     O1819   1.883       .  S
Al1809     O1818   1.783       .  S
C1810      O1823   1.277       .  A
C1810      C1920   1.465       .  S
O1811      C1821   1.270       .  A
O1811     Al1813   1.927       .  S
O1812      C1825   1.271       .  A
O1812     Al1822   1.928       .  S
Al1813     O1826   1.888       .  S
Al1813     O1823   1.909       .  S
Al1813     O1818   1.759       .  S
O1814      C1821   1.255       .  A
O1814     Al1822   1.888       .  S
O1815      C2616   1.277       .  A
O1815     Al1822   1.909       .  S
O1816      C2598   1.264       .  A
O1816     Al1822   1.965       .  S
O1817      C1824   1.282       .  A
O1817     Al2601   1.940       .  S
O1818     Al1822   1.759       .  S
O1819      C1820   1.242       .  A
C1821      C1868   1.475       .  S
C1824      O2607   1.277       .  A
C1824      C2690   1.465   1_545  S
C1825      O1826   1.255       .  A
C1825      C1890   1.476       .  S
O1827      C1842   1.264       .  A
O1827     Al1835   1.965       .  S
C1828      O1838   1.264       .  A
C1828      O1829   1.242       .  A
O1829     Al1831   1.883       .  S
O1830      C1832   1.282   1_455  A
Al1831     O1839   1.940       .  S
Al1831     O1840   1.783       .  S
C1832      O1845   1.277       .  A
C1832      C1942   1.465       .  S
O1833     Al1835   1.928       .  S
O1834     Al1844   1.927       .  S
Al1835     O1848   1.888       .  S
Al1835     O1845   1.909       .  S
O1836      C1843   1.255       .  A
O1836     Al1844   1.888       .  S
O1837      C1846   1.277       .  A
O1837     Al1844   1.909       .  S
O1838     Al1844   1.965       .  S
O1839      C1846   1.282       .  A
O1840     Al1844   1.759       .  S
O1841      C1842   1.242       .  A
C1842      C1865   1.476       .  S
C1847      O1848   1.255       .  A
O1849      C1864   1.277       .  A
O1849     Al1857   1.908       .  S
C1850      O1860   1.277       .  A
C1850      O1851   1.282       .  A
C1850      C1960   1.465       .  S
O1851     Al1853   1.940       .  S
O1852      C1854   1.242       .  A
O1852     Al1853   1.883       .  S
Al1853     O1861   1.882       .  S
Al1853     O1863   1.940       .  S
Al1853     O1862   1.783       .  S
C1854      O1867   1.264       .  A
O1855      C1865   1.255       .  A
O1855     Al1857   1.889       .  S
O1856      C1869   1.255       .  A
O1856     Al1866   1.889       .  S
Al1857     O1870   1.928       .  S
Al1857     O1867   1.965       .  S
Al1857     O1862   1.759       .  S
O1858      C1865   1.270       .  A
O1858     Al1866   1.927       .  S
O1859      C1868   1.264       .  A
O1859     Al1866   1.965       .  S
O1860     Al1866   1.908       .  S
O1861      C1868   1.242       .  A
O1862     Al1866   1.759       .  S
O1863      C1864   1.282       .  A
C1864      C1886   1.465       .  S
C1869      O1870   1.270       .  A
O1871      C1886   1.276       .  A
O1871     Al1879   1.908       .  S
C1872      O1882   1.277       .  A
C1872      O1873   1.282       .  A
C1872      C1974   1.465       .  S
O1873     Al1875   1.940       .  S
O1874      C1876   1.242       .  A
O1874     Al1875   1.883       .  S
Al1875     O1883   1.883       .  S
Al1875     O1885   1.940       .  S
Al1875     O1884   1.783       .  S
C1876      O1889   1.264       .  A
C1876      C1957   1.476       .  S
O1877      C1887   1.255       .  A
O1877     Al1879   1.888       .  S
O1878      C1891   1.255       .  A
O1878     Al1888   1.889       .  S
Al1879     O1892   1.928       .  S
Al1879     O1889   1.965       .  S
Al1879     O1884   1.759       .  S
O1880      C1887   1.271       .  A
O1880     Al1888   1.928       .  S
O1881      C1890   1.264       .  A
O1881     Al1888   1.965       .  S
O1882     Al1888   1.908       .  S
O1883      C1890   1.242       .  A
O1884     Al1888   1.759       .  S
O1885      C1886   1.282       .  A
C1891      O1892   1.271       .  A
O1893      C2700   1.264       .  A
O1893     Al1901   1.965   1_565  S
C1894      O1904   1.264       .  A
C1894      O1895   1.242       .  A
O1895     Al1897   1.883   1_545  S
O1896      C1898   1.282       .  A
O1896     Al2689   1.940       .  S
Al1897     O2688   1.940       .  S
Al1897     O2301   1.940       .  S
Al1897     O2699   1.883       .  S
Al1897     O1906   1.783   1_565  S
C1898      O2703   1.277       .  A
C1898      C2616   1.465       .  S
O1899      C1909   1.271       .  A
O1899     Al1901   1.928       .  S
O1900      C1913   1.270       .  A
O1900     Al2306   1.927   1_554  S
Al1901     O1914   1.888       .  S
Al1901     O1911   1.908   1_545  S
Al1901     O1906   1.759       .  S
O1902      C1909   1.255       .  A
O1902     Al1910   1.888       .  S
O1903      C1912   1.277       .  A
O1903     Al2306   1.909   1_554  S
O1904     Al1910   1.965       .  S
O1905      C1912   1.282   1_565  A
O1905     Al2293   1.940   1_554  S
O1906     Al1910   1.759       .  S
O1907      C1908   1.242       .  A
O1907     Al2689   1.883       .  S
C1908      O2685   1.264       .  A
C1908      C1979   1.476       .  S
Al1910     O2296   1.927       .  S
Al1910     O2299   1.909       .  S
O1911      C2690   1.277       .  A
C1912      C1934   1.466       .  S
C1913      O2310   1.255   1_554  A
O1914      C2309   1.255       .  A
O1915      C1930   1.264       .  A
O1915     Al1923   1.965       .  S
C1916      O1926   1.264       .  A
C1916      O1917   1.242       .  A
O1917     Al1919   1.883       .  S
O1918      C1920   1.282       .  A
O1918     Al2711   1.940       .  S
Al1919     O2710   1.940       .  S
Al1919     O1927   1.940   1_545  S
Al1919     O2721   1.882   1_545  S
Al1919     O1928   1.783       .  S
C1920      O1933   1.277       .  A
O1921      C2723   1.271       .  A
O1921     Al1923   1.928       .  S
O1922      C2727   1.270   1_545  A
O1922     Al1932   1.927       .  S
Al1923     O1936   1.888       .  S
Al1923     O1933   1.909       .  S
Al1923     O2720   1.759       .  S
O1924      C1931   1.255       .  A
O1924     Al1932   1.888       .  S
O1925      C1934   1.277       .  A
O1925     Al1932   1.909       .  S
O1926     Al1932   1.965       .  S
O1927      C1934   1.282   1_565  A
O1928     Al2715   1.759   1_545  S
O1928     Al1932   1.759       .  S
O1929      C1930   1.242       .  A
O1929     Al2711   1.882       .  S
C1930      C1975   1.476       .  S
C1931      O2713   1.271   1_545  A
C1935      O2714   1.270       .  A
C1935      O1936   1.255       .  A
O1937      C1952   1.264       .  A
O1937     Al1945   1.965       .  S
C1938      O1939   1.242       .  A
O1940      C1942   1.282   1_455  A
O1940     Al2337   1.940   1_554  S
Al1941     O2336   1.940       .  S
Al1941     O1951   1.883   1_455  S
Al1941     O1950   1.783   1_455  S
C1942      O1955   1.277       .  A
O1943      C1953   1.271       .  A
O1943     Al2341   1.927   1_554  S
O1944      C1957   1.270       .  A
O1944     Al1954   1.927       .  S
Al1945     O2339   1.927       .  S
Al1945     O1958   1.888       .  S
Al1945     O2351   1.909       .  S
Al1945     O1950   1.759       .  S
O1946      C2349   1.255       .  A
O1946     Al1954   1.888       .  S
O1947     Al1954   1.909   1_455  S
O1948     Al1954   1.965   1_455  S
O1949      C1956   1.282       .  A
O1950     Al1954   1.759       .  S
O1951      C1952   1.242       .  A
C1953      O2342   1.255   1_554  A
C1953      C1978   1.476       .  S
O1955     Al2341   1.909   1_554  S
C1957      O1958   1.255       .  A
O1959      C1974   1.277       .  A
O1959     Al2363   1.908       .  S
C1960      O1970   1.277       .  A
C1960      O1961   1.282       .  A
O1961     Al1963   1.940       .  S
O1962      C1964   1.242       .  A
O1962     Al1963   1.883       .  S
Al1963     O1971   1.882       .  S
Al1963     O2369   1.940   1_554  S
Al1963     O1972   1.783       .  S
C1964      O1977   1.264       .  A
O1965      C1975   1.255       .  A
O1965     Al1967   1.889       .  S
O1966      C2375   1.255   1_554  A
O1966     Al1976   1.889       .  S
Al1967     O2355   1.908   1_554  S
Al1967     O1980   1.928   1_554  S
Al1967     O1977   1.965       .  S
Al1967     O1972   1.759       .  S
O1968      C1975   1.271       .  A
O1968     Al1976   1.928       .  S
O1969      C1978   1.264       .  A
O1969     Al1976   1.965       .  S
O1970     Al1976   1.909       .  S
O1971      C1978   1.242       .  A
O1972     Al1976   1.759       .  S
O1973      C1974   1.282       .  A
O1973     Al2359   1.940       .  S
C1979      O2362   1.255       .  A
C1979      O2376   1.270       .  A
O1980      C2375   1.270       .  A
O1981      C1996   1.277       .  A
C1982      O1992   1.277       .  A
C1982      O2775   1.282       .  A
C1982      C2150   1.465       .  S
O1983      C2774   1.282       .  A
O1983     Al2777   1.940       .  S
O1984      C1986   1.242       .  A
O1984     Al1985   1.883       .  S
Al1985     O2775   1.940       .  S
Al1985     O2785   1.883       .  S
Al1985     O1994   1.783       .  S
C1986      O1999   1.264       .  A
C1986      C2331   1.476       .  S
O1987      C1997   1.255       .  A
O1987     Al1989   1.888       .  S
O1988     Al1998   1.889       .  S
Al1989     O2002   1.927       .  S
Al1989     O1999   1.965       .  S
Al1989     O1994   1.759       .  S
O1990      C1997   1.270       .  A
O1990     Al1998   1.927       .  S
O1991      C2792   1.264       .  A
O1991     Al1998   1.965       .  S
O1992     Al1998   1.908       .  S
O1993      C2000   1.242       .  A
O1993     Al2777   1.883       .  S
O1994     Al1998   1.759       .  S
O1995      C1996   1.282       .  A
C1996      C2018   1.465       .  S
C1997      C2224   1.476       .  S
C2000      O2783   1.264       .  A
C2000      C2063   1.476       .  S
C2001      C2334   1.476       .  S
O2003      C2018   1.277       .  A
O2003     Al2011   1.908       .  S
C2004      O2014   1.277       .  A
C2004      O2005   1.282   1_545  A
C2004      C2136   1.465       .  S
O2005     Al2007   1.940       .  S
O2006      C2008   1.242       .  A
O2006     Al2799   1.883       .  S
Al2007     O2798   1.883       .  S
Al2007     O2015   1.882   1_565  S
Al2007     O2809   1.940   1_565  S
Al2007     O2016   1.783       .  S
C2008      O2021   1.264       .  A
C2008      C2199   1.476       .  S
O2009      C2019   1.255       .  A
O2009     Al2011   1.888       .  S
O2010      C2023   1.255       .  A
O2010     Al2020   1.889       .  S
Al2011     O2024   1.928       .  S
Al2011     O2021   1.965       .  S
Al2011     O2808   1.759       .  S
O2012      C2811   1.270   1_545  A
O2012     Al2020   1.927       .  S
O2013      C2022   1.264       .  A
O2013     Al2020   1.965       .  S
O2014     Al2020   1.909       .  S
O2015      C2022   1.242       .  A
O2016     Al2803   1.759       .  S
O2016     Al2020   1.759   1_565  S
O2017      C2018   1.282       .  A
O2017     Al2799   1.940       .  S
C2019      O2804   1.270       .  A
C2019      C2216   1.475       .  S
C2022      C2067   1.475       .  S
C2023      O2816   1.270   1_545  A
C2023      C2290   1.476       .  S
O2024      C2815   1.270       .  A
O2025     Al2033   1.908       .  S
C2026      O2036   1.277       .  A
C2026      O2027   1.282       .  A
C2026      C2128   1.465       .  S
O2028      C2030   1.242       .  A
Al2029     O2037   1.882       .  S
Al2029     O2038   1.783       .  S
C2030      C2309   1.475       .  S
O2031     Al2033   1.888       .  S
O2032      C2045   1.255       .  A
O2032     Al2042   1.889       .  S
Al2033     O2046   1.928       .  S
Al2033     O2043   1.964       .  S
Al2033     O2038   1.759       .  S
O2034     Al2042   1.928       .  S
O2035      C2044   1.264       .  A
O2035     Al2042   1.965       .  S
O2037      C2044   1.242       .  A
O2038     Al2042   1.759       .  S
O2039      C2040   1.282       .  A
C2040      C2070   1.465   1_655  S
C2041      C2048   1.476       .  S
C2044      C2239   1.476       .  S
C2045      O2046   1.270       .  A
C2045      C2092   1.476       .  S
O2047      C2062   1.264       .  A
O2047     Al2055   1.965       .  S
C2048      O2058   1.264       .  A
C2048      O2049   1.242       .  A
O2049     Al2051   1.882       .  S
O2050      C2052   1.282       .  A
Al2051     O2059   1.940       .  S
Al2051     O2061   1.883       .  S
Al2051     O2060   1.783       .  S
C2052      O2065   1.277       .  A
C2052      C2096   1.465       .  S
O2053      C2063   1.270       .  A
O2054      C2067   1.270       .  A
O2054     Al2064   1.927       .  S
Al2055     O2068   1.888       .  S
Al2055     O2060   1.759       .  S
O2056     Al2064   1.888       .  S
O2057      C2066   1.277       .  A
O2057     Al2064   1.909       .  S
O2058     Al2064   1.965       .  S
O2059      C2066   1.282       .  A
O2060     Al2064   1.759       .  S
O2061      C2062   1.242       .  A
C2062      C2283   1.476       .  S
C2066      C2162   1.465       .  S
C2067      O2068   1.255       .  A
O2069      C2084   1.277       .  A
O2069     Al2077   1.908       .  S
C2070      O2080   1.277       .  A
O2072      C2074   1.242       .  A
O2072     Al2073   1.883   1_655  S
Al2073     O2083   1.940       .  S
Al2073     O2082   1.783   1_455  S
C2074      O2087   1.264       .  A
C2074      C2243   1.475       .  S
O2075      C2085   1.255       .  A
O2075     Al2077   1.888       .  S
O2076      C2089   1.255       .  A
O2076     Al2086   1.889       .  S
Al2077     O2090   1.928       .  S
Al2077     O2087   1.964       .  S
Al2077     O2082   1.759       .  S
O2078      C2085   1.271       .  A
O2078     Al2086   1.928       .  S
O2079     Al2086   1.965   1_455  S
O2080     Al2086   1.908   1_455  S
O2081      C2088   1.242       .  A
O2082     Al2086   1.759       .  S
O2083      C2084   1.282   1_455  A
C2084      C2114   1.465       .  S
C2085      C2312   1.476       .  S
C2088      C2177   1.476       .  S
C2089      O2090   1.271       .  A
C2089      C2202   1.476       .  S
O2091      C2106   1.264       .  A
O2091     Al2099   1.965       .  S
C2092      O2102   1.264       .  A
C2092      O2093   1.242       .  A
O2093     Al2095   1.883       .  S
O2094      C2096   1.282       .  A
O2094     Al2095   1.940       .  S
Al2095     O2103   1.940       .  S
Al2095     O2105   1.883       .  S
Al2095     O2104   1.783       .  S
C2096      O2109   1.277       .  A
O2097      C2107   1.270       .  A
O2097     Al2099   1.927       .  S
O2098      C2111   1.271       .  A
O2098     Al2108   1.928       .  S
Al2099     O2112   1.888       .  S
Al2099     O2109   1.909       .  S
Al2099     O2104   1.759       .  S
O2100      C2107   1.255       .  A
O2100     Al2108   1.888       .  S
O2101      C2110   1.277       .  A
O2101     Al2108   1.908       .  S
O2102     Al2108   1.965       .  S
O2103      C2110   1.282       .  A
O2104     Al2108   1.759       .  S
O2105      C2106   1.242       .  A
C2106      C2155   1.476       .  S
C2107      C2360   1.475       .  S
C2110      C2176   1.466       .  S
C2111      O2112   1.255       .  A
C2111      C2250   1.476       .  S
O2113      C2128   1.277       .  A
O2113     Al2121   1.909       .  S
C2114      O2124   1.277       .  A
C2114      O2115   1.282   1_655  A
O2115     Al2117   1.940       .  S
O2116      C2118   1.242       .  A
Al2117     O2125   1.883   1_455  S
Al2117     O2126   1.783       .  S
C2118      O2131   1.264       .  A
C2118      C2173   1.475       .  S
O2119      C2129   1.255       .  A
O2119     Al2121   1.889       .  S
O2120      C2133   1.255       .  A
O2120     Al2130   1.889       .  S
Al2121     O2134   1.927       .  S
Al2121     O2131   1.965       .  S
O2122     Al2130   1.928       .  S
O2123      C2132   1.264       .  A
O2123     Al2130   1.965       .  S
O2124     Al2130   1.908       .  S
O2125      C2132   1.242       .  A
O2126     Al2130   1.759   1_455  S
O2127      C2128   1.282       .  A
C2129      C2194   1.476       .  S
C2132      C2305   1.476       .  S
C2133      C2348   1.476       .  S
O2135      C2942   1.277       .  A
O2135     Al2143   1.908   1_565  S
C2136      O2146   1.277       .  A
C2136      O2137   1.282   1_545  A
O2137     Al2139   1.940       .  S
O2138      C2140   1.242       .  A
O2138     Al2931   1.883       .  S
Al2139     O2930   1.882       .  S
Al2139     O2147   1.882   1_565  S
Al2139     O2941   1.940       .  S
Al2139     O2148   1.783   1_565  S
C2140      O2945   1.264       .  A
C2140      C2195   1.476       .  S
O2141      C2151   1.255       .  A
O2141     Al2143   1.889       .  S
O2142      C2155   1.255       .  A
O2142     Al2152   1.889       .  S
Al2143     O2156   1.928       .  S
Al2143     O2153   1.965   1_545  S
Al2143     O2148   1.759       .  S
O2144      C2151   1.270       .  A
O2144     Al2152   1.927       .  S
O2145      C2154   1.264       .  A
O2145     Al2152   1.965       .  S
O2146     Al2152   1.909       .  S
O2147      C2154   1.242       .  A
O2148     Al2152   1.759       .  S
O2149      C2150   1.282       .  A
O2149     Al2931   1.940       .  S
C2150      O2927   1.277       .  A
C2151      C2172   1.476       .  S
O2153      C2932   1.264       .  A
C2154      C2327   1.476       .  S
C2155      O2156   1.270       .  A
O2157      C2172   1.264       .  A
O2157     Al2165   1.965       .  S
C2158      O2168   1.264       .  A
C2158      O2159   1.242       .  A
C2158      C2287   1.476       .  S
O2159     Al2161   1.883       .  S
O2160      C2162   1.282       .  A
O2160     Al2161   1.940       .  S
Al2161     O2169   1.940       .  S
Al2161     O2171   1.883       .  S
Al2161     O2170   1.783       .  S
C2162      O2175   1.277       .  A
O2163      C2173   1.270       .  A
O2163     Al2165   1.927       .  S
O2164      C2177   1.271       .  A
O2164     Al2174   1.928       .  S
Al2165     O2178   1.888       .  S
Al2165     O2175   1.909       .  S
Al2165     O2170   1.759       .  S
O2166      C2173   1.255       .  A
O2166     Al2174   1.888       .  S
O2167      C2176   1.277       .  A
O2167     Al2174   1.908       .  S
O2168     Al2174   1.965       .  S
O2169      C2176   1.282       .  A
O2170     Al2174   1.759       .  S
O2171      C2172   1.242       .  A
C2177      O2178   1.255       .  A
O2179      C2194   1.264       .  A
O2179     Al2187   1.965       .  S
C2180      O2181   1.242       .  A
C2180      C2265   1.476       .  S
O2182      C2184   1.282       .  A
O2182     Al2183   1.940       .  S
Al2183     O2193   1.883       .  S
Al2183     O2192   1.783       .  S
C2184      O2197   1.277       .  A
C2184      C2242   1.465       .  S
O2185      C2195   1.271       .  A
O2185     Al2187   1.928       .  S
O2186      C2199   1.271       .  A
O2186     Al2196   1.928       .  S
Al2187     O2200   1.888       .  S
Al2187     O2197   1.908       .  S
Al2187     O2192   1.759       .  S
O2188      C2195   1.255       .  A
O2188     Al2196   1.888       .  S
O2189     Al2196   1.908       .  S
O2190     Al2196   1.965       .  S
O2191      C2198   1.282       .  A
O2192     Al2196   1.759       .  S
O2193      C2194   1.242       .  A
C2199      O2200   1.255       .  A
O2201      C2216   1.264       .  A
O2201     Al2209   1.965       .  S
C2202      O3004   1.264       .  A
C2202      O2203   1.242       .  A
O2203     Al2997   1.883       .  S
O2204      C2206   1.282       .  A
O2204     Al2205   1.940       .  S
Al2205     O2995   1.883       .  S
Al2205     O3005   1.940       .  S
Al2205     O2215   1.883       .  S
Al2205     O2214   1.783       .  S
C2206      O2219   1.277       .  A
C2206      C2316   1.465       .  S
O2207      C2217   1.270       .  A
O2207     Al2209   1.927       .  S
O2208      C2221   1.270       .  A
O2208     Al2218   1.928       .  S
Al2209     O2222   1.888       .  S
Al2209     O2219   1.909       .  S
Al2209     O2214   1.759       .  S
O2210      C2217   1.255       .  A
O2210     Al2218   1.888       .  S
O2211      C3012   1.277       .  A
O2211     Al2218   1.909       .  S
O2212      C2994   1.264       .  A
O2212     Al2218   1.965       .  S
O2213      C2220   1.282       .  A
O2213     Al2997   1.940       .  S
O2214     Al2218   1.759       .  S
O2215      C2216   1.242       .  A
C2217      C2264   1.475       .  S
C2220      O3003   1.277       .  A
C2220      C3086   1.465   1_545  S
C2221      O2222   1.255       .  A
C2221      C2286   1.476       .  S
O2223      C2238   1.264       .  A
O2223     Al2231   1.965       .  S
C2224      O2234   1.264       .  A
C2224      O2225   1.242       .  A
O2225     Al2227   1.883       .  S
O2226      C2228   1.282   1_455  A
Al2227     O2235   1.940       .  S
Al2227     O2236   1.783       .  S
C2228      O2241   1.277       .  A
C2228      C2338   1.465       .  S
O2229     Al2231   1.928       .  S
O2230     Al2240   1.927       .  S
Al2231     O2244   1.888       .  S
Al2231     O2241   1.909       .  S
O2232      C2239   1.255       .  A
O2232     Al2240   1.888       .  S
O2233      C2242   1.277       .  A
O2233     Al2240   1.909       .  S
O2234     Al2240   1.965       .  S
O2235      C2242   1.282       .  A
O2236     Al2240   1.759       .  S
O2237      C2238   1.242       .  A
C2238      C2261   1.476       .  S
C2243      O2244   1.255       .  A
O2245      C2260   1.277       .  A
O2245     Al2253   1.908       .  S
C2246      O2256   1.277       .  A
C2246      O2247   1.282       .  A
C2246      C2356   1.465       .  S
O2247     Al2249   1.940       .  S
O2248      C2250   1.242       .  A
O2248     Al2249   1.883       .  S
Al2249     O2257   1.882       .  S
Al2249     O2259   1.940       .  S
Al2249     O2258   1.783       .  S
C2250      O2263   1.264       .  A
O2251      C2261   1.255       .  A
O2251     Al2253   1.889       .  S
O2252      C2265   1.255       .  A
O2252     Al2262   1.889       .  S
Al2253     O2266   1.928       .  S
Al2253     O2263   1.965       .  S
Al2253     O2258   1.759       .  S
O2254      C2261   1.270       .  A
O2254     Al2262   1.927       .  S
O2255      C2264   1.264       .  A
O2255     Al2262   1.965       .  S
O2256     Al2262   1.908       .  S
O2257      C2264   1.242       .  A
O2258     Al2262   1.759       .  S
O2259      C2260   1.282       .  A
C2260      C2282   1.465       .  S
C2265      O2266   1.271       .  A
O2267      C2282   1.277       .  A
O2267     Al2275   1.908       .  S
C2268      O2278   1.277       .  A
C2268      O2269   1.282       .  A
C2268      C2370   1.465       .  S
O2269     Al2271   1.940       .  S
O2270      C2272   1.242       .  A
O2270     Al2271   1.883       .  S
Al2271     O2279   1.883       .  S
Al2271     O2281   1.940       .  S
Al2271     O2280   1.783       .  S
C2272      O2285   1.264       .  A
C2272      C2353   1.476       .  S
O2273      C2283   1.255       .  A
O2273     Al2275   1.888       .  S
O2274      C2287   1.255       .  A
O2274     Al2284   1.889       .  S
Al2275     O2288   1.928       .  S
Al2275     O2285   1.965       .  S
Al2275     O2280   1.759       .  S
O2276      C2283   1.271       .  A
O2276     Al2284   1.928       .  S
O2277      C2286   1.264       .  A
O2277     Al2284   1.965       .  S
O2278     Al2284   1.908       .  S
O2279      C2286   1.242       .  A
O2280     Al2284   1.759       .  S
O2281      C2282   1.282       .  A
C2287      O2288   1.271       .  A
O2289      C3096   1.264       .  A
O2289     Al2297   1.965   1_565  S
C2290      O2300   1.264       .  A
C2290      O2291   1.242       .  A
O2291     Al2293   1.883   1_545  S
O2292      C2294   1.282       .  A
O2292     Al3085   1.940       .  S
Al2293     O3084   1.940       .  S
Al2293     O3095   1.883       .  S
Al2293     O2302   1.783   1_565  S
C2294      O3099   1.277       .  A
C2294      C3012   1.465       .  S
O2295      C2305   1.271       .  A
O2295     Al2297   1.928       .  S
O2296      C2309   1.270       .  A
Al2297     O2310   1.888       .  S
Al2297     O2307   1.908   1_545  S
Al2297     O2302   1.759       .  S
O2298      C2305   1.255       .  A
O2298     Al2306   1.888       .  S
O2299      C2308   1.277       .  A
O2300     Al2306   1.965       .  S
O2301      C2308   1.282   1_565  A
O2302     Al2306   1.759       .  S
O2303      C2304   1.242       .  A
O2303     Al3085   1.883       .  S
C2304      O3081   1.264       .  A
C2304      C2375   1.476       .  S
O2307      C3086   1.277       .  A
C2308      C2330   1.466       .  S
O2311      C2326   1.264       .  A
O2311     Al2319   1.965       .  S
C2312      O2322   1.264       .  A
C2312      O2313   1.242       .  A
O2313     Al2315   1.883       .  S
O2314      C2316   1.282       .  A
O2314     Al3107   1.940       .  S
Al2315     O3106   1.940       .  S
Al2315     O2323   1.940   1_545  S
Al2315     O3117   1.882   1_545  S
Al2315     O2324   1.783       .  S
C2316      O2329   1.277       .  A
O2317      C3119   1.271       .  A
O2317     Al2319   1.928       .  S
O2318      C3123   1.270   1_545  A
O2318     Al2328   1.927       .  S
Al2319     O2332   1.888       .  S
Al2319     O2329   1.909       .  S
Al2319     O3116   1.759       .  S
O2320      C2327   1.255       .  A
O2320     Al2328   1.888       .  S
O2321      C2330   1.277       .  A
O2321     Al2328   1.909       .  S
O2322     Al2328   1.965       .  S
O2323      C2330   1.282   1_565  A
O2324     Al3111   1.759   1_545  S
O2324     Al2328   1.759       .  S
O2325      C2326   1.242       .  A
O2325     Al3107   1.882       .  S
C2326      C2371   1.476       .  S
C2327      O3109   1.271   1_545  A
C2331      O3110   1.270       .  A
C2331      O2332   1.255       .  A
O2333      C2348   1.264       .  A
O2333     Al2341   1.965       .  S
C2334      O2335   1.242       .  A
O2336      C2338   1.282   1_455  A
Al2337     O2347   1.883   1_455  S
Al2337     O2346   1.783   1_455  S
C2338      O2351   1.277       .  A
O2339      C2349   1.271       .  A
O2340      C2353   1.270       .  A
O2340     Al2350   1.927       .  S
Al2341     O2354   1.888       .  S
Al2341     O2346   1.759       .  S
O2342     Al2350   1.888       .  S
O2343     Al2350   1.909   1_455  S
O2344     Al2350   1.965   1_455  S
O2345      C2352   1.282       .  A
O2346     Al2350   1.759       .  S
O2347      C2348   1.242       .  A
C2349      C2374   1.476       .  S
C2353      O2354   1.255       .  A
O2355      C2370   1.277       .  A
C2356      O2366   1.277       .  A
C2356      O2357   1.282       .  A
O2357     Al2359   1.940       .  S
O2358      C2360   1.242       .  A
O2358     Al2359   1.883       .  S
Al2359     O2367   1.882       .  S
Al2359     O2368   1.783       .  S
C2360      O2373   1.264       .  A
O2361      C2371   1.255       .  A
O2361     Al2363   1.889       .  S
O2362     Al2372   1.889       .  S
Al2363     O2376   1.928       .  S
Al2363     O2373   1.965       .  S
Al2363     O2368   1.759       .  S
O2364      C2371   1.271       .  A
O2364     Al2372   1.928       .  S
O2365      C2374   1.264       .  A
O2365     Al2372   1.965       .  S
O2366     Al2372   1.909       .  S
O2367      C2374   1.242       .  A
O2368     Al2372   1.759       .  S
O2369      C2370   1.282       .  A
O2377      C2392   1.277       .  A
O2377     Al2781   1.908       .  S
C2378      O2388   1.277       .  A
C2378      C2546   1.465   1_545  S
O2380      C2382   1.242       .  A
O2380     Al2381   1.883   1_565  S
Al2381     O2787   1.940   1_554  S
Al2381     O2390   1.783   1_545  S
C2382      O2395   1.264       .  A
C2382      C2727   1.476       .  S
O2383      C2393   1.255       .  A
O2383     Al2385   1.888       .  S
O2384      C2793   1.255   1_554  A
O2384     Al2394   1.889       .  S
Al2385     O2773   1.908   1_554  S
Al2385     O2398   1.928   1_554  S
Al2385     O2395   1.965       .  S
Al2385     O2390   1.759       .  S
O2386      C2393   1.270       .  A
O2386     Al2394   1.927       .  S
O2387     Al2394   1.965   1_545  S
O2388     Al2394   1.908   1_545  S
O2389      C2396   1.242       .  A
O2390     Al2394   1.759       .  S
O2391      C2392   1.282   1_545  A
O2391     Al2777   1.940       .  S
C2392      C2414   1.465       .  S
C2393      C2620   1.476       .  S
C2396      C2459   1.476       .  S
C2397      O2780   1.255       .  A
C2397      O2794   1.270       .  A
C2397      C2730   1.476       .  S
O2398      C2793   1.270       .  A
O2399      C2414   1.277       .  A
O2399     Al2407   1.908       .  S
C2400      O2410   1.277       .  A
C2400      O2401   1.282       .  A
C2400      C2532   1.465       .  S
O2401     Al2403   1.940       .  S
O2402      C2404   1.242       .  A
Al2403     O2411   1.882       .  S
Al2403     O2412   1.783       .  S
C2404      O2417   1.264       .  A
C2404      C2595   1.476       .  S
O2405      C2415   1.255       .  A
O2405     Al2407   1.888       .  S
O2406      C2419   1.255       .  A
O2406     Al2416   1.889       .  S
Al2407     O2420   1.928       .  S
Al2407     O2417   1.965       .  S
O2408     Al2416   1.927       .  S
O2409      C2418   1.264       .  A
O2409     Al2416   1.965       .  S
O2410     Al2416   1.909       .  S
O2411      C2418   1.242       .  A
O2412     Al2416   1.759       .  S
O2413      C2414   1.282   1_545  A
C2415      C2612   1.475       .  S
C2418      C2463   1.475       .  S
C2419      C2686   1.476       .  S
O2421     Al2429   1.908       .  S
C2422      O2432   1.277       .  A
C2422      O2423   1.282       .  A
C2422      C2524   1.465       .  S
O2423     Al2821   1.940       .  S
O2424      C2426   1.242       .  A
Al2425     O2819   1.940   1_554  S
Al2425     O2433   1.882       .  S
Al2425     O2434   1.783       .  S
C2426      C2705   1.475       .  S
O2427      C2833   1.255   1_554  A
O2427     Al2429   1.888       .  S
O2428      C2441   1.255       .  A
O2428     Al2438   1.889       .  S
Al2429     O2442   1.928       .  S
Al2429     O2439   1.964       .  S
Al2429     O2434   1.759       .  S
O2430      C2833   1.271       .  A
O2430     Al2438   1.928   1_556  S
O2431      C2440   1.264       .  A
O2431     Al2438   1.965       .  S
O2432     Al2834   1.909       .  S
O2433      C2440   1.242       .  A
O2434     Al2438   1.759       .  S
O2435      C2436   1.282       .  A
C2436      C2466   1.465   1_655  S
C2437      O2823   1.255       .  A
C2437      O2826   1.271       .  A
C2437      C2444   1.476       .  S
Al2438     O2828   1.909   1_554  S
C2440      C2635   1.476       .  S
C2441      O2442   1.270       .  A
C2441      C2488   1.476       .  S
O2443      C2458   1.264       .  A
O2443     Al2451   1.965       .  S
C2444      O2454   1.264       .  A
C2444      O2445   1.242       .  A
O2445     Al2447   1.882       .  S
O2446      C2448   1.282       .  A
O2446     Al2843   1.940   1_554  S
Al2447     O2842   1.940       .  S
Al2447     O2455   1.940       .  S
Al2447     O2457   1.883       .  S
Al2447     O2456   1.783       .  S
C2448      O2461   1.277       .  A
C2448      C2492   1.465       .  S
O2449      C2459   1.270       .  A
O2449     Al2847   1.928   1_554  S
O2450      C2463   1.270       .  A
O2450     Al2460   1.927       .  S
Al2451     O2845   1.928       .  S
Al2451     O2464   1.888       .  S
Al2451     O2857   1.909       .  S
Al2451     O2456   1.759       .  S
O2452      C2855   1.255       .  A
O2452     Al2460   1.888       .  S
O2453      C2462   1.277       .  A
O2453     Al2460   1.909       .  S
O2454     Al2460   1.965       .  S
O2455      C2462   1.282       .  A
O2456     Al2460   1.759       .  S
O2457      C2458   1.242       .  A
C2458      C2679   1.476       .  S
C2459      O2848   1.255   1_554  A
O2461     Al2847   1.909   1_554  S
C2462      C2558   1.465       .  S
C2463      O2464   1.255       .  A
O2465      C2480   1.277       .  A
O2465     Al2473   1.908       .  S
C2466      O2476   1.277       .  A
O2468      C2470   1.242       .  A
O2468     Al2469   1.883   1_655  S
Al2469     O2479   1.940       .  S
Al2469     O2478   1.783   1_455  S
C2470      O2483   1.264       .  A
C2470      C2639   1.475       .  S
O2471      C2481   1.255       .  A
O2471     Al2473   1.888       .  S
O2472      C2485   1.255       .  A
O2472     Al2482   1.889       .  S
Al2473     O2486   1.928       .  S
Al2473     O2483   1.964       .  S
Al2473     O2478   1.759       .  S
O2474      C2481   1.271       .  A
O2474     Al2482   1.928       .  S
O2475     Al2482   1.965   1_455  S
O2476     Al2482   1.908   1_455  S
O2477      C2484   1.242       .  A
O2478     Al2482   1.759       .  S
O2479      C2480   1.282   1_455  A
C2480      C2510   1.465       .  S
C2481      C2708   1.476       .  S
C2484      C2573   1.476       .  S
C2485      O2486   1.271       .  A
C2485      C2598   1.476       .  S
O2487      C2502   1.264       .  A
O2487     Al2495   1.965       .  S
C2488      O2498   1.264       .  A
C2488      O2489   1.242       .  A
O2489     Al2491   1.883       .  S
O2490      C2492   1.282       .  A
O2490     Al2491   1.940       .  S
Al2491     O2499   1.940       .  S
Al2491     O2501   1.883       .  S
Al2491     O2500   1.783       .  S
C2492      O2505   1.277       .  A
O2493      C2503   1.271       .  A
O2493     Al2495   1.927       .  S
O2494      C2507   1.271       .  A
O2494     Al2504   1.928       .  S
Al2495     O2508   1.888       .  S
Al2495     O2505   1.908       .  S
Al2495     O2500   1.759       .  S
O2496      C2503   1.254       .  A
O2496     Al2504   1.888       .  S
O2497      C2506   1.277       .  A
O2497     Al2504   1.908       .  S
O2498     Al2504   1.965       .  S
O2499      C2506   1.282       .  A
O2500     Al2504   1.759       .  S
O2501      C2502   1.242       .  A
C2502      C2551   1.476       .  S
C2503      C2756   1.475       .  S
C2506      C2572   1.466       .  S
C2507      O2508   1.255       .  A
C2507      C2646   1.476       .  S
O2509      C2524   1.277       .  A
O2509     Al2517   1.909       .  S
C2510      O2520   1.277       .  A
C2510      O2511   1.282   1_655  A
O2511     Al2513   1.940       .  S
O2512      C2514   1.242       .  A
Al2513     O2521   1.883   1_455  S
Al2513     O2522   1.783       .  S
C2514      O2527   1.264       .  A
C2514      C2569   1.475       .  S
O2515      C2525   1.255       .  A
O2515     Al2517   1.889       .  S
O2516      C2529   1.255       .  A
O2516     Al2526   1.889       .  S
Al2517     O2530   1.927       .  S
Al2517     O2527   1.965       .  S
O2518     Al2526   1.928       .  S
O2519      C2528   1.264       .  A
O2519     Al2526   1.965       .  S
O2520     Al2526   1.908       .  S
O2521      C2528   1.242       .  A
O2522     Al2526   1.759   1_455  S
O2523      C2524   1.282       .  A
C2525      C2590   1.476       .  S
C2528      C2701   1.476       .  S
C2529      C2744   1.476       .  S
O2531     Al2539   1.908       .  S
C2532      O2542   1.277       .  A
C2532      O2533   1.282       .  A
O2533     Al2535   1.940       .  S
O2534      C2536   1.242       .  A
Al2535     O2543   1.882       .  S
Al2535     O2544   1.783       .  S
C2536      C2591   1.475       .  S
O2537      C2547   1.255       .  A
O2537     Al2539   1.889       .  S
O2538      C2551   1.255       .  A
O2538     Al2548   1.889       .  S
Al2539     O2552   1.928       .  S
Al2539     O2549   1.965       .  S
Al2539     O2544   1.759       .  S
O2540      C2547   1.271       .  A
O2540     Al2548   1.927       .  S
O2541      C2550   1.264       .  A
O2541     Al2548   1.965       .  S
O2542     Al2548   1.909       .  S
O2543      C2550   1.242       .  A
O2544     Al2548   1.759       .  S
O2545      C2546   1.282       .  A
C2547      C2568   1.476       .  S
C2550      C2723   1.476       .  S
C2551      O2552   1.270       .  A
O2553      C2568   1.264       .  A
O2553     Al2561   1.965       .  S
C2554      O2564   1.264       .  A
C2554      O2555   1.242       .  A
C2554      C2683   1.476       .  S
O2555     Al2557   1.883       .  S
O2556      C2558   1.282       .  A
O2556     Al2557   1.940       .  S
Al2557     O2565   1.940       .  S
Al2557     O2567   1.882       .  S
Al2557     O2566   1.783       .  S
C2558      O2571   1.277       .  A
O2559      C2569   1.270       .  A
O2559     Al2561   1.927       .  S
O2560      C2573   1.270       .  A
O2560     Al2570   1.928       .  S
Al2561     O2574   1.888       .  S
Al2561     O2571   1.909       .  S
Al2561     O2566   1.759       .  S
O2562      C2569   1.255       .  A
O2562     Al2570   1.888       .  S
O2563      C2572   1.277       .  A
O2563     Al2570   1.909       .  S
O2564     Al2570   1.965       .  S
O2565      C2572   1.282       .  A
O2566     Al2570   1.759       .  S
O2567      C2568   1.242       .  A
C2573      O2574   1.255       .  A
O2575      C2590   1.264       .  A
O2575     Al2583   1.965       .  S
C2576      O2577   1.242       .  A
C2576      C2661   1.476       .  S
O2578      C2580   1.282       .  A
O2578     Al2579   1.940       .  S
Al2579     O2589   1.883       .  S
Al2579     O2588   1.783       .  S
C2580      O2593   1.277       .  A
C2580      C2638   1.466       .  S
O2581      C2591   1.271       .  A
O2581     Al2583   1.928       .  S
O2582      C2595   1.271       .  A
O2582     Al2592   1.928       .  S
Al2583     O2596   1.888       .  S
Al2583     O2593   1.909       .  S
Al2583     O2588   1.759       .  S
O2584      C2591   1.255       .  A
O2584     Al2592   1.888       .  S
O2585     Al2592   1.908       .  S
O2586     Al2592   1.965       .  S
O2587      C2594   1.282       .  A
O2588     Al2592   1.759       .  S
O2589      C2590   1.242       .  A
C2595      O2596   1.255       .  A
O2597      C2612   1.264       .  A
O2597     Al2605   1.965       .  S
C2598      O2599   1.242       .  A
O2600      C2602   1.282   1_545  A
O2600     Al2601   1.940       .  S
Al2601     O2611   1.883   1_545  S
Al2601     O2610   1.783   1_545  S
C2602      O2615   1.277       .  A
C2602      C2712   1.465       .  S
O2603      C2613   1.270       .  A
O2603     Al2605   1.927       .  S
O2604      C2617   1.271       .  A
O2604     Al2614   1.928       .  S
Al2605     O2618   1.888       .  S
Al2605     O2615   1.909       .  S
Al2605     O2610   1.759       .  S
O2606      C2613   1.255       .  A
O2606     Al2614   1.888       .  S
O2607     Al2614   1.909   1_545  S
O2608     Al2614   1.965   1_545  S
O2609      C2616   1.282       .  A
O2610     Al2614   1.759       .  S
O2611      C2612   1.242       .  A
C2613      C2660   1.475       .  S
C2617      O2618   1.255       .  A
C2617      C2682   1.476       .  S
O2619      C2634   1.264       .  A
O2619     Al2627   1.965       .  S
C2620      O2630   1.264       .  A
C2620      O2621   1.242       .  A
O2621     Al2623   1.883       .  S
O2622      C2624   1.282   1_455  A
Al2623     O2631   1.940       .  S
Al2623     O2632   1.783       .  S
C2624      O2637   1.277       .  A
C2624      C2734   1.465       .  S
O2625     Al2627   1.928       .  S
O2626     Al2636   1.927       .  S
Al2627     O2640   1.888       .  S
Al2627     O2637   1.909       .  S
O2628      C2635   1.255       .  A
O2628     Al2636   1.888       .  S
O2629      C2638   1.277       .  A
O2629     Al2636   1.909       .  S
O2630     Al2636   1.965       .  S
O2631      C2638   1.282       .  A
O2632     Al2636   1.759       .  S
O2633      C2634   1.242       .  A
C2634      C2657   1.476       .  S
C2639      O2640   1.255       .  A
O2641      C2656   1.277       .  A
O2641     Al2649   1.908       .  S
C2642      O2652   1.277       .  A
C2642      O2643   1.282       .  A
C2642      C2752   1.465       .  S
O2643     Al2645   1.940       .  S
O2644      C2646   1.242       .  A
O2644     Al2645   1.883       .  S
Al2645     O2653   1.882       .  S
Al2645     O2655   1.940       .  S
Al2645     O2654   1.783       .  S
C2646      O2659   1.264       .  A
O2647      C2657   1.255       .  A
O2647     Al2649   1.889       .  S
O2648      C2661   1.255       .  A
O2648     Al2658   1.889       .  S
Al2649     O2662   1.928       .  S
Al2649     O2659   1.965       .  S
Al2649     O2654   1.759       .  S
O2650      C2657   1.270       .  A
O2650     Al2658   1.927       .  S
O2651      C2660   1.264       .  A
O2651     Al2658   1.965       .  S
O2652     Al2658   1.908       .  S
O2653      C2660   1.242       .  A
O2654     Al2658   1.759       .  S
O2655      C2656   1.282       .  A
C2656      C2678   1.465       .  S
C2661      O2662   1.270       .  A
O2663      C2678   1.277       .  A
O2663     Al2671   1.908       .  S
C2664      O2674   1.277       .  A
C2664      O2665   1.282       .  A
C2664      C2766   1.465       .  S
O2665     Al2667   1.940       .  S
O2666      C2668   1.242       .  A
O2666     Al2667   1.883       .  S
Al2667     O2675   1.883       .  S
Al2667     O2677   1.940       .  S
Al2667     O2676   1.783       .  S
C2668      O2681   1.264       .  A
C2668      C2749   1.475       .  S
O2669      C2679   1.255       .  A
O2669     Al2671   1.888       .  S
O2670      C2683   1.255       .  A
O2670     Al2680   1.889       .  S
Al2671     O2684   1.928       .  S
Al2671     O2681   1.964       .  S
Al2671     O2676   1.759       .  S
O2672      C2679   1.271       .  A
O2672     Al2680   1.928       .  S
O2673      C2682   1.264       .  A
O2673     Al2680   1.965       .  S
O2674     Al2680   1.908       .  S
O2675      C2682   1.242       .  A
O2676     Al2680   1.759       .  S
O2677      C2678   1.282       .  A
C2683      O2684   1.271       .  A
O2685     Al2693   1.965       .  S
C2686      O2696   1.264       .  A
C2686      O2687   1.242       .  A
O2687     Al2689   1.883       .  S
O2688      C2690   1.282       .  A
Al2689     O3093   1.940       .  S
Al2689     O2698   1.783       .  S
O2691      C2701   1.271       .  A
O2691     Al2693   1.928       .  S
O2692      C2705   1.270       .  A
O2692     Al3098   1.927   1_554  S
Al2693     O2706   1.888       .  S
Al2693     O2703   1.908       .  S
Al2693     O2698   1.759       .  S
O2694      C2701   1.255       .  A
O2694     Al2702   1.888       .  S
O2695      C2704   1.277       .  A
O2695     Al3098   1.909   1_554  S
O2696     Al2702   1.965       .  S
O2697      C2704   1.282       .  A
O2697     Al3085   1.940   1_554  S
O2698     Al2702   1.759       .  S
O2699      C2700   1.242       .  A
C2700      C2771   1.476       .  S
Al2702     O3088   1.927       .  S
Al2702     O3091   1.909       .  S
C2704      C2726   1.466       .  S
C2705      O3102   1.255   1_554  A
O2706      C3101   1.255       .  A
O2707      C2722   1.264       .  A
O2707     Al2715   1.965       .  S
C2708      O2718   1.264       .  A
C2708      O2709   1.242       .  A
O2709     Al2711   1.883       .  S
O2710      C2712   1.282   1_545  A
Al2711     O2719   1.940       .  S
Al2711     O2720   1.783       .  S
C2712      O2725   1.277       .  A
O2713     Al2715   1.928       .  S
O2714     Al2724   1.927       .  S
Al2715     O2728   1.888       .  S
Al2715     O2725   1.909       .  S
O2716      C2723   1.255       .  A
O2716     Al2724   1.888       .  S
O2717      C2726   1.277       .  A
O2717     Al2724   1.909       .  S
O2718     Al2724   1.965       .  S
O2719      C2726   1.282       .  A
O2720     Al2724   1.759       .  S
O2721      C2722   1.242       .  A
C2722      C2767   1.476       .  S
C2727      O2728   1.255       .  A
O2729      C2744   1.264       .  A
O2729     Al2737   1.965       .  S
C2730      O2731   1.242       .  A
O2732      C2734   1.282   1_455  A
O2732     Al3129   1.940   1_554  S
Al2733     O3128   1.940       .  S
Al2733     O2743   1.883   1_455  S
Al2733     O2742   1.783   1_455  S
C2734      O2747   1.277       .  A
O2735      C2745   1.271       .  A
O2735     Al3133   1.928   1_554  S
O2736      C2749   1.270       .  A
O2736     Al2746   1.927       .  S
Al2737     O3131   1.928       .  S
Al2737     O2750   1.888       .  S
Al2737     O3143   1.909       .  S
Al2737     O2742   1.759       .  S
O2738      C3141   1.255       .  A
O2738     Al2746   1.888       .  S
O2739     Al2746   1.909   1_455  S
O2740     Al2746   1.965   1_455  S
O2741      C2748   1.282       .  A
O2742     Al2746   1.759       .  S
O2743      C2744   1.242       .  A
C2745      O3134   1.255   1_554  A
C2745      C2770   1.476       .  S
O2747     Al3133   1.909   1_554  S
C2749      O2750   1.255       .  A
O2751      C2766   1.277       .  A
O2751     Al3155   1.908       .  S
C2752      O2762   1.277       .  A
C2752      O2753   1.282       .  A
O2753     Al2755   1.940       .  S
O2754      C2756   1.242       .  A
O2754     Al2755   1.883       .  S
Al2755     O2763   1.882       .  S
Al2755     O3161   1.940   1_554  S
Al2755     O2764   1.783       .  S
C2756      O2769   1.264       .  A
O2757      C2767   1.255       .  A
O2757     Al2759   1.889       .  S
O2758      C3167   1.255   1_554  A
O2758     Al2768   1.889       .  S
Al2759     O3147   1.908   1_554  S
Al2759     O2772   1.928   1_554  S
Al2759     O2769   1.965       .  S
Al2759     O2764   1.759       .  S
O2760      C2767   1.271       .  A
O2760     Al2768   1.928       .  S
O2761      C2770   1.264       .  A
O2761     Al2768   1.965       .  S
O2762     Al2768   1.909       .  S
O2763      C2770   1.242       .  A
O2764     Al2768   1.759       .  S
O2765      C2766   1.282       .  A
O2765     Al3151   1.940       .  S
C2771      O3154   1.255       .  A
C2771      O3168   1.270       .  A
O2772      C3167   1.270       .  A
O2773      C2788   1.277       .  A
C2774      O2784   1.277       .  A
C2774      C2942   1.465   1_545  S
O2776      C2778   1.242       .  A
O2776     Al2777   1.883   1_565  S
Al2777     O2786   1.783   1_545  S
C2778      O2791   1.264       .  A
C2778      C3123   1.476       .  S
O2779      C2789   1.255       .  A
O2779     Al2781   1.888       .  S
O2780     Al2790   1.889       .  S
Al2781     O2794   1.928       .  S
Al2781     O2791   1.965       .  S
Al2781     O2786   1.759       .  S
O2782      C2789   1.271       .  A
O2782     Al2790   1.927       .  S
O2783     Al2790   1.965   1_545  S
O2784     Al2790   1.908   1_545  S
O2785      C2792   1.242       .  A
O2786     Al2790   1.759       .  S
O2787      C2788   1.282   1_545  A
C2788      C2810   1.465       .  S
C2789      C3016   1.476       .  S
C2792      C2855   1.476       .  S
C2793      C3126   1.476       .  S
O2795      C2810   1.277       .  A
O2795     Al2803   1.908       .  S
C2796      O2806   1.277       .  A
C2796      O2797   1.282       .  A
C2796      C2928   1.465       .  S
O2797     Al2799   1.940       .  S
O2798      C2800   1.242       .  A
Al2799     O2807   1.882       .  S
Al2799     O2808   1.783       .  S
C2800      O2813   1.264       .  A
C2800      C2991   1.476       .  S
O2801      C2811   1.255       .  A
O2801     Al2803   1.888       .  S
O2802      C2815   1.255       .  A
O2802     Al2812   1.889       .  S
Al2803     O2816   1.928       .  S
Al2803     O2813   1.965       .  S
O2804     Al2812   1.927       .  S
O2805      C2814   1.264       .  A
O2805     Al2812   1.965       .  S
O2806     Al2812   1.909       .  S
O2807      C2814   1.242       .  A
O2808     Al2812   1.759       .  S
O2809      C2810   1.282   1_545  A
C2811      C3008   1.475       .  S
C2814      C2859   1.475       .  S
C2815      C3082   1.476       .  S
O2817     Al2825   1.908       .  S
C2818      O2828   1.277       .  A
C2818      O2819   1.282       .  A
C2818      C2920   1.465       .  S
O2820      C2822   1.242       .  A
Al2821     O2829   1.882       .  S
Al2821     O2830   1.783       .  S
C2822      C3101   1.475       .  S
O2823     Al2825   1.888       .  S
O2824      C2837   1.255       .  A
O2824     Al2834   1.889       .  S
Al2825     O2838   1.928       .  S
Al2825     O2835   1.964       .  S
Al2825     O2830   1.759       .  S
O2826     Al2834   1.928       .  S
O2827      C2836   1.264       .  A
O2827     Al2834   1.965       .  S
O2829      C2836   1.242       .  A
O2830     Al2834   1.759       .  S
O2831      C2832   1.282       .  A
C2832      C2862   1.465   1_655  S
C2833      C2840   1.476       .  S
C2836      C3031   1.476       .  S
C2837      O2838   1.270       .  A
C2837      C2884   1.476       .  S
O2839      C2854   1.264       .  A
O2839     Al2847   1.965       .  S
C2840      O2850   1.264       .  A
C2840      O2841   1.242       .  A
O2841     Al2843   1.882       .  S
O2842      C2844   1.282       .  A
Al2843     O2851   1.940       .  S
Al2843     O2853   1.883       .  S
Al2843     O2852   1.783       .  S
C2844      O2857   1.277       .  A
C2844      C2888   1.465       .  S
O2845      C2855   1.270       .  A
O2846      C2859   1.270       .  A
O2846     Al2856   1.927       .  S
Al2847     O2860   1.888       .  S
Al2847     O2852   1.759       .  S
O2848     Al2856   1.888       .  S
O2849      C2858   1.277       .  A
O2849     Al2856   1.909       .  S
O2850     Al2856   1.965       .  S
O2851      C2858   1.282       .  A
O2852     Al2856   1.759       .  S
O2853      C2854   1.242       .  A
C2854      C3075   1.476       .  S
C2858      C2954   1.465       .  S
C2859      O2860   1.255       .  A
O2861      C2876   1.277       .  A
O2861     Al2869   1.908       .  S
C2862      O2872   1.277       .  A
O2864      C2866   1.242       .  A
O2864     Al2865   1.883   1_655  S
Al2865     O2875   1.940       .  S
Al2865     O2874   1.783   1_455  S
C2866      O2879   1.264       .  A
C2866      C3035   1.475       .  S
O2867      C2877   1.255       .  A
O2867     Al2869   1.888       .  S
O2868      C2881   1.255       .  A
O2868     Al2878   1.889       .  S
Al2869     O2882   1.928       .  S
Al2869     O2879   1.964       .  S
Al2869     O2874   1.759       .  S
O2870      C2877   1.271       .  A
O2870     Al2878   1.928       .  S
O2871     Al2878   1.965   1_455  S
O2872     Al2878   1.908   1_455  S
O2873      C2880   1.242       .  A
O2874     Al2878   1.759       .  S
O2875      C2876   1.282   1_455  A
C2876      C2906   1.465       .  S
C2877      C3104   1.476       .  S
C2880      C2969   1.476       .  S
C2881      O2882   1.271       .  A
C2881      C2994   1.476       .  S
O2883      C2898   1.264       .  A
O2883     Al2891   1.965       .  S
C2884      O2894   1.264       .  A
C2884      O2885   1.242       .  A
O2885     Al2887   1.883       .  S
O2886      C2888   1.282       .  A
O2886     Al2887   1.940       .  S
Al2887     O2895   1.940       .  S
Al2887     O2897   1.883       .  S
Al2887     O2896   1.783       .  S
C2888      O2901   1.277       .  A
O2889      C2899   1.270       .  A
O2889     Al2891   1.927       .  S
O2890      C2903   1.271       .  A
O2890     Al2900   1.928       .  S
Al2891     O2904   1.888       .  S
Al2891     O2901   1.908       .  S
Al2891     O2896   1.759       .  S
O2892      C2899   1.255       .  A
O2892     Al2900   1.888       .  S
O2893      C2902   1.277       .  A
O2893     Al2900   1.908       .  S
O2894     Al2900   1.965       .  S
O2895      C2902   1.282       .  A
O2896     Al2900   1.759       .  S
O2897      C2898   1.242       .  A
C2898      C2947   1.476       .  S
C2899      C3152   1.475       .  S
C2902      C2968   1.466       .  S
C2903      O2904   1.255       .  A
C2903      C3042   1.476       .  S
O2905      C2920   1.277       .  A
O2905     Al2913   1.909       .  S
C2906      O2916   1.277       .  A
C2906      O2907   1.282   1_655  A
O2907     Al2909   1.940       .  S
O2908      C2910   1.242       .  A
Al2909     O2917   1.883   1_455  S
Al2909     O2918   1.783       .  S
C2910      O2923   1.264       .  A
C2910      C2965   1.475       .  S
O2911      C2921   1.255       .  A
O2911     Al2913   1.889       .  S
O2912      C2925   1.255       .  A
O2912     Al2922   1.889       .  S
Al2913     O2926   1.927       .  S
Al2913     O2923   1.965       .  S
O2914     Al2922   1.928       .  S
O2915      C2924   1.264       .  A
O2915     Al2922   1.965       .  S
O2916     Al2922   1.908       .  S
O2917      C2924   1.242       .  A
O2918     Al2922   1.759   1_455  S
O2919      C2920   1.282       .  A
C2921      C2986   1.476       .  S
C2924      C3097   1.476       .  S
C2925      C3140   1.476       .  S
O2927     Al2935   1.908       .  S
C2928      O2938   1.277       .  A
C2928      O2929   1.282       .  A
O2929     Al2931   1.940       .  S
O2930      C2932   1.242       .  A
Al2931     O2939   1.882       .  S
Al2931     O2940   1.783       .  S
C2932      C2987   1.475       .  S
O2933      C2943   1.255       .  A
O2933     Al2935   1.889       .  S
O2934      C2947   1.255       .  A
O2934     Al2944   1.889       .  S
Al2935     O2948   1.928       .  S
Al2935     O2945   1.965       .  S
Al2935     O2940   1.759       .  S
O2936      C2943   1.270       .  A
O2936     Al2944   1.927       .  S
O2937      C2946   1.264       .  A
O2937     Al2944   1.965       .  S
O2938     Al2944   1.909       .  S
O2939      C2946   1.242       .  A
O2940     Al2944   1.759       .  S
O2941      C2942   1.282       .  A
C2943      C2964   1.476       .  S
C2946      C3119   1.476       .  S
C2947      O2948   1.270       .  A
O2949      C2964   1.264       .  A
O2949     Al2957   1.965       .  S
C2950      O2960   1.264       .  A
C2950      O2951   1.242       .  A
C2950      C3079   1.476       .  S
O2951     Al2953   1.883       .  S
O2952      C2954   1.282       .  A
O2952     Al2953   1.940       .  S
Al2953     O2961   1.940       .  S
Al2953     O2963   1.882       .  S
Al2953     O2962   1.783       .  S
C2954      O2967   1.277       .  A
O2955      C2965   1.270       .  A
O2955     Al2957   1.927       .  S
O2956      C2969   1.271       .  A
O2956     Al2966   1.928       .  S
Al2957     O2970   1.888       .  S
Al2957     O2967   1.909       .  S
Al2957     O2962   1.759       .  S
O2958      C2965   1.255       .  A
O2958     Al2966   1.888       .  S
O2959      C2968   1.277       .  A
O2959     Al2966   1.909       .  S
O2960     Al2966   1.965       .  S
O2961      C2968   1.282       .  A
O2962     Al2966   1.759       .  S
O2963      C2964   1.242       .  A
C2969      O2970   1.255       .  A
O2971      C2986   1.264       .  A
O2971     Al2979   1.965       .  S
C2972      O2973   1.242       .  A
C2972      C3057   1.476       .  S
O2974      C2976   1.282       .  A
O2974     Al2975   1.940       .  S
Al2975     O2985   1.883       .  S
Al2975     O2984   1.783       .  S
C2976      O2989   1.277       .  A
C2976      C3034   1.466       .  S
O2977      C2987   1.271       .  A
O2977     Al2979   1.928       .  S
O2978      C2991   1.271       .  A
O2978     Al2988   1.928       .  S
Al2979     O2992   1.888       .  S
Al2979     O2989   1.909       .  S
Al2979     O2984   1.759       .  S
O2980      C2987   1.254       .  A
O2980     Al2988   1.888       .  S
O2981     Al2988   1.908       .  S
O2982     Al2988   1.965       .  S
O2983      C2990   1.282       .  A
O2984     Al2988   1.759       .  S
O2985      C2986   1.242       .  A
C2991      O2992   1.255       .  A
O2993      C3008   1.264       .  A
O2993     Al3001   1.965       .  S
C2994      O2995   1.242       .  A
O2996      C2998   1.282   1_545  A
O2996     Al2997   1.940       .  S
Al2997     O3007   1.883   1_545  S
Al2997     O3006   1.783   1_545  S
C2998      O3011   1.277       .  A
C2998      C3108   1.465       .  S
O2999      C3009   1.270       .  A
O2999     Al3001   1.927       .  S
O3000      C3013   1.270       .  A
O3000     Al3010   1.928       .  S
Al3001     O3014   1.888       .  S
Al3001     O3011   1.909       .  S
Al3001     O3006   1.759       .  S
O3002      C3009   1.255       .  A
O3002     Al3010   1.888       .  S
O3003     Al3010   1.909   1_545  S
O3004     Al3010   1.965   1_545  S
O3005      C3012   1.282       .  A
O3006     Al3010   1.759       .  S
O3007      C3008   1.242       .  A
C3009      C3056   1.475       .  S
C3013      O3014   1.255       .  A
C3013      C3078   1.476       .  S
O3015      C3030   1.264       .  A
O3015     Al3023   1.965       .  S
C3016      O3026   1.264       .  A
C3016      O3017   1.242       .  A
O3017     Al3019   1.883       .  S
O3018      C3020   1.282   1_455  A
Al3019     O3027   1.940       .  S
Al3019     O3028   1.783       .  S
C3020      O3033   1.277       .  A
C3020      C3130   1.465       .  S
O3021     Al3023   1.928       .  S
O3022     Al3032   1.927       .  S
Al3023     O3036   1.888       .  S
Al3023     O3033   1.909       .  S
O3024      C3031   1.255       .  A
O3024     Al3032   1.888       .  S
O3025      C3034   1.277       .  A
O3025     Al3032   1.909       .  S
O3026     Al3032   1.965       .  S
O3027      C3034   1.282       .  A
O3028     Al3032   1.759       .  S
O3029      C3030   1.242       .  A
C3030      C3053   1.476       .  S
C3035      O3036   1.255       .  A
O3037      C3052   1.277       .  A
O3037     Al3045   1.908       .  S
C3038      O3048   1.277       .  A
C3038      O3039   1.282       .  A
C3038      C3148   1.465       .  S
O3039     Al3041   1.940       .  S
O3040      C3042   1.242       .  A
O3040     Al3041   1.883       .  S
Al3041     O3049   1.882       .  S
Al3041     O3051   1.940       .  S
Al3041     O3050   1.783       .  S
C3042      O3055   1.264       .  A
O3043      C3053   1.255       .  A
O3043     Al3045   1.889       .  S
O3044      C3057   1.255       .  A
O3044     Al3054   1.889       .  S
Al3045     O3058   1.928       .  S
Al3045     O3055   1.965       .  S
Al3045     O3050   1.759       .  S
O3046      C3053   1.270       .  A
O3046     Al3054   1.927       .  S
O3047      C3056   1.264       .  A
O3047     Al3054   1.965       .  S
O3048     Al3054   1.908       .  S
O3049      C3056   1.242       .  A
O3050     Al3054   1.759       .  S
O3051      C3052   1.282       .  A
C3052      C3074   1.465       .  S
C3057      O3058   1.270       .  A
O3059      C3074   1.277       .  A
O3059     Al3067   1.908       .  S
C3060      O3070   1.277       .  A
C3060      O3061   1.282       .  A
C3060      C3162   1.465       .  S
O3061     Al3063   1.940       .  S
O3062      C3064   1.242       .  A
O3062     Al3063   1.883       .  S
Al3063     O3071   1.883       .  S
Al3063     O3073   1.940       .  S
Al3063     O3072   1.783       .  S
C3064      O3077   1.264       .  A
C3064      C3145   1.475       .  S
O3065      C3075   1.255       .  A
O3065     Al3067   1.888       .  S
O3066      C3079   1.255       .  A
O3066     Al3076   1.889       .  S
Al3067     O3080   1.928       .  S
Al3067     O3077   1.964       .  S
Al3067     O3072   1.759       .  S
O3068      C3075   1.271       .  A
O3068     Al3076   1.928       .  S
O3069      C3078   1.264       .  A
O3069     Al3076   1.965       .  S
O3070     Al3076   1.908       .  S
O3071      C3078   1.242       .  A
O3072     Al3076   1.759       .  S
O3073      C3074   1.282       .  A
C3079      O3080   1.271       .  A
O3081     Al3089   1.965       .  S
C3082      O3092   1.264       .  A
C3082      O3083   1.242       .  A
O3083     Al3085   1.883       .  S
O3084      C3086   1.282       .  A
Al3085     O3094   1.783       .  S
O3087      C3097   1.271       .  A
O3087     Al3089   1.928       .  S
O3088      C3101   1.270       .  A
Al3089     O3102   1.888       .  S
Al3089     O3099   1.908       .  S
Al3089     O3094   1.759       .  S
O3090      C3097   1.255       .  A
O3090     Al3098   1.888       .  S
O3091      C3100   1.277       .  A
O3092     Al3098   1.965       .  S
O3093      C3100   1.282       .  A
O3094     Al3098   1.759       .  S
O3095      C3096   1.242       .  A
C3096      C3167   1.476       .  S
C3100      C3122   1.466       .  S
O3103      C3118   1.264       .  A
O3103     Al3111   1.965       .  S
C3104      O3114   1.264       .  A
C3104      O3105   1.242       .  A
O3105     Al3107   1.883       .  S
O3106      C3108   1.282   1_545  A
Al3107     O3115   1.940       .  S
Al3107     O3116   1.783       .  S
C3108      O3121   1.277       .  A
O3109     Al3111   1.928       .  S
O3110     Al3120   1.927       .  S
Al3111     O3124   1.888       .  S
Al3111     O3121   1.909       .  S
O3112      C3119   1.254       .  A
O3112     Al3120   1.888       .  S
O3113      C3122   1.277       .  A
O3113     Al3120   1.909       .  S
O3114     Al3120   1.965       .  S
O3115      C3122   1.282       .  A
O3116     Al3120   1.759       .  S
O3117      C3118   1.242       .  A
C3118      C3163   1.476       .  S
C3123      O3124   1.255       .  A
O3125      C3140   1.264       .  A
O3125     Al3133   1.965       .  S
C3126      O3127   1.242       .  A
O3128      C3130   1.282   1_455  A
Al3129     O3139   1.883   1_455  S
Al3129     O3138   1.783   1_455  S
C3130      O3143   1.277       .  A
O3131      C3141   1.271       .  A
O3132      C3145   1.270       .  A
O3132     Al3142   1.927       .  S
Al3133     O3146   1.888       .  S
Al3133     O3138   1.759       .  S
O3134     Al3142   1.888       .  S
O3135     Al3142   1.909   1_455  S
O3136     Al3142   1.965   1_455  S
O3137      C3144   1.282       .  A
O3138     Al3142   1.759       .  S
O3139      C3140   1.242       .  A
C3141      C3166   1.476       .  S
C3145      O3146   1.255       .  A
O3147      C3162   1.277       .  A
C3148      O3158   1.277       .  A
C3148      O3149   1.282       .  A
O3149     Al3151   1.940       .  S
O3150      C3152   1.242       .  A
O3150     Al3151   1.883       .  S
Al3151     O3159   1.882       .  S
Al3151     O3160   1.783       .  S
C3152      O3165   1.264       .  A
O3153      C3163   1.255       .  A
O3153     Al3155   1.889       .  S
O3154     Al3164   1.889       .  S
Al3155     O3168   1.928       .  S
Al3155     O3165   1.965       .  S
Al3155     O3160   1.759       .  S
O3156      C3163   1.271       .  A
O3156     Al3164   1.928       .  S
O3157      C3166   1.264       .  A
O3157     Al3164   1.965       .  S
O3158     Al3164   1.909       .  S
O3159      C3166   1.242       .  A
O3160     Al3164   1.759       .  S
O3161      C3162   1.282       .  A
