geometry optimzed in LAMMPS
_audit_creation_date              2020-12-01 
_audit_creation_method            'lammps2cif' 
_symmetry_space_group_name_H-M    'P1' 
_symmetry_Int_Tables_number       1 
_symmetry_cell_setting            triclinic 
loop_ 
_symmetry_equiv_pos_as_xyz 
  x,y,z 
_cell_length_a                    33.63908631 
_cell_length_b                    33.7380268092725 
_cell_length_c                    33.57925953390507 
_cell_angle_alpha                 89.63694503450529 
_cell_angle_beta                  90.42990098287784 
_cell_angle_gamma                 90.13573921973402 
loop_ 
_atom_site_label 
_atom_site_type_symbol 
_atom_site_fract_x 
_atom_site_fract_y 
_atom_site_fract_z 
_atom_site_charge 
O1          O  0.22651469  0.75010915  0.58816967    -0.82300
C2          C  0.08638060  0.77367019  0.49948200     0.97100
O3          O  0.10029489  0.74014600  0.50961646    -0.71400
O4          O  0.17367739  0.72515364  0.48666307    -0.75000
Al5        Al  0.14872296  0.72472381  0.53738005     1.49000
C6          C  0.21102269  0.72703314  0.48379660     0.92300
O7          O  0.20693540  0.82497689  0.50741440    -0.81200
O8          O  0.15397931  0.82042502  0.61254749    -0.74800
Al9        Al  0.21497842  0.78668158  0.54777786     1.90100
O10         O  0.15524661  0.85365573  0.53509708    -0.73900
O11         O  0.09503595  0.77526472  0.59388745    -0.73700
O12         O  0.09821514  0.80465196  0.51652803    -0.79400
O13         O  0.12342522  0.71762509  0.58673294    -0.77600
O14         O  0.16371637  0.77400673  0.54902221    -1.13700
O15         O  0.19468683  0.69941970  0.56216535    -0.72900
C16         C  0.22207001  0.71329461  0.58425050     0.97800
C17         C  0.18344278  0.85401910  0.50996525     0.94200
Al18       Al  0.12839317  0.81060053  0.56319408     1.55600
O19         O  0.23038695  0.74902990  0.50733898    -0.77500
C20         C  0.10063279  0.73999342  0.60571513     0.98400
C21         C  0.19004760  0.82848532  0.61761769     0.93300
O22         O  0.21380962  0.82596408  0.58886159    -0.82800
O23         O  0.29605241  0.87497082  0.76489869    -0.82300
C24         C  0.31036953  0.95862987  0.90831910     0.97100
O25         O  0.27733462  0.94854585  0.89261559    -0.71400
O26         O  0.26532047  0.97293278  0.81930027    -0.75000
Al27       Al  0.26449869  0.92173102  0.84255330     1.49000
C28         C  0.26770109  0.97746804  0.78219251     0.92300
O29         O  0.36556630  0.95690138  0.79216006    -0.81200
O30         O  0.36143438  0.84896899  0.84104706    -0.74800
Al31       Al  0.32990945  0.91582221  0.78003256     1.90100
O32         O  0.39402859  0.92615857  0.84297019    -0.73900
O33         O  0.31341972  0.86466838  0.89826152    -0.73700
O34         O  0.34204685  0.94198990  0.89808617    -0.79400
O35         O  0.25693500  0.87180212  0.86652852    -0.77600
O36         O  0.31464272  0.91169305  0.83034016    -1.13700
O37         O  0.24232155  0.89751817  0.79385087    -0.72900
C38         C  0.25876409  0.87708911  0.76674075     0.97800
C39         C  0.39474885  0.95270331  0.81570089     0.94200
Al40       Al  0.34992268  0.89677457  0.86731202     1.55600
O41         O  0.29089139  0.95540246  0.76285290    -0.77500
C42         C  0.27838718  0.85285349  0.89077180     0.98400
C43         C  0.37327151  0.84632999  0.80588864     0.93300
O44         O  0.37126003  0.87628305  0.78306244    -0.82800
O45         O  0.40557666  0.69344257  0.69929826    -0.82300
C46         C  0.49619049  0.55789032  0.67738916     0.97100
O47         O  0.48427559  0.57001989  0.71119647    -0.71400
O48         O  0.50807694  0.64381810  0.72360744    -0.75000
Al49       Al  0.45735988  0.61955474  0.72614154     1.49000
C50         C  0.51120279  0.68103687  0.72113431     0.92300
O51         O  0.48321485  0.67683349  0.62329283    -0.81200
O52         O  0.38125130  0.61810972  0.63273066    -0.74800
Al53       Al  0.44457207  0.68349925  0.66247256     1.90100
O54         O  0.45538655  0.62492842  0.59536444    -0.73900
O55         O  0.40542138  0.56101216  0.67818560    -0.73700
O56         O  0.48063781  0.57102994  0.64583827    -0.79400
O57         O  0.40724521  0.59455153  0.73378303    -0.77600
O58         O  0.44520468  0.63302529  0.67632296    -1.13700
O59         O  0.43480406  0.66807759  0.75134306    -0.72900
C60         C  0.41400058  0.69553057  0.73541326     0.97800
C61         C  0.47937491  0.65422171  0.59382965     0.94200
Al62       Al  0.43188291  0.59656111  0.64068896     1.55600
O63         O  0.48723070  0.70024353  0.69894609    -0.77500
C64         C  0.39140932  0.56804292  0.71245429     0.98400
C65         C  0.37350707  0.65353065  0.62465140     0.93300
O66         O  0.40066818  0.67959773  0.62512366    -0.82800
O67         O  0.79390736  0.57873283  0.19876743    -0.82300
C68         C  0.81297552  0.49374237  0.05685954     0.97100
O69         O  0.77962410  0.50565091  0.07007139    -0.71400
O70         O  0.76716285  0.47976848  0.14349077    -0.75000
Al71       Al  0.76575447  0.53128920  0.12074196     1.49000
C72         C  0.76989231  0.47478702  0.18066093     0.92300
O73         O  0.86901833  0.50088519  0.17617447    -0.81200
O74         O  0.86099221  0.60506813  0.12118718    -0.74800
Al75       Al  0.83023578  0.53983090  0.18518386     1.90100
O76         O  0.89648788  0.53008357  0.12465017    -0.73900
O77         O  0.81401489  0.58477821  0.06343897    -0.73700
O78         O  0.84485338  0.50845363  0.06988492    -0.79400
O79         O  0.75855990  0.58208391  0.09703045    -0.77600
O80         O  0.81577925  0.54194362  0.13440542    -1.13700
O81         O  0.74160807  0.55277028  0.17003633    -0.72900
C82         C  0.75741667  0.57152435  0.19894709     0.97800
C83         C  0.89823801  0.50508831  0.15323162     0.94200
Al84       Al  0.85130406  0.55581774  0.09769665     1.55600
O85         O  0.79309393  0.49705318  0.20062498    -0.77500
C86         C  0.77961883  0.59838705  0.07058323     0.98400
C87         C  0.86988732  0.61118523  0.15689282     0.93300
O88         O  0.86810505  0.58334577  0.18241127    -0.82800
O89         O  0.72805123  0.69727038  0.37911208    -0.82300
C90         C  0.58443370  0.67824274  0.45976587     0.97100
O91         O  0.59844915  0.71167997  0.44899399    -0.71400
O92         O  0.67070441  0.72558097  0.47621227    -0.75000
Al93       Al  0.64902233  0.72591907  0.42412540     1.49000
C94         C  0.70774080  0.72457258  0.48165517     0.92300
O95         O  0.70349189  0.62511086  0.45980942    -0.81200
O96         O  0.65402391  0.63025123  0.35173374    -0.74800
Al97       Al  0.71402372  0.66246703  0.41931908     1.90100
O98         O  0.65334198  0.59655759  0.42841122    -0.73900
O99         O  0.59523017  0.67595468  0.36788490    -0.73700
O100        O  0.59756237  0.64680590  0.44513708    -0.79400
O101        O  0.62657156  0.73248119  0.37298162    -0.77600
O102        O  0.66335026  0.67623509  0.41476431    -1.13700
O103        O  0.69742656  0.74983838  0.40175002    -0.72900
C104        C  0.72494271  0.73424025  0.38134698     0.97800
C105        C  0.68064485  0.59574508  0.45491650     0.94200
Al106      Al  0.62777878  0.64025024  0.39965086     1.55600
O107        O  0.72847974  0.70162764  0.46033826    -0.77500
C108        C  0.60236920  0.71051323  0.35477060     0.98400
C109        C  0.68931954  0.61910569  0.34856405     0.93300
O110        O  0.71290699  0.62212468  0.37808732    -0.82800
O111        O  0.90540095  0.75810128  0.25703392    -0.82300
C112        C  0.99411775  0.89785797  0.28248754     0.97100
O113        O  0.98367613  0.88472292  0.24852849    -0.71400
O114        O  0.00728159  0.81125343  0.23426989    -0.75000
Al115      Al  0.95649955  0.83572061  0.23264225     1.49000
C116        C  0.01057453  0.77404173  0.23607879     0.92300
O117        O  0.98453603  0.77670502  0.33418351    -0.81200
O118        O  0.88129028  0.83231383  0.32783497    -0.74800
Al119      Al  0.94506215  0.76945650  0.29460377     1.90100
O120        O  0.95679696  0.82832541  0.36236267    -0.73900
O121        O  0.90125420  0.89062754  0.28219650    -0.73700
O122        O  0.97802087  0.88456906  0.31341654    -0.79400
O123        O  0.90696364  0.86072964  0.22498273    -0.77600
O124        O  0.94437847  0.82063311  0.28194055    -1.13700
O125        O  0.93258066  0.78921794  0.20650087    -0.72900
C126        C  0.91015495  0.76198134  0.22011910     0.97800
C127        C  0.98129374  0.79964235  0.36358859     0.94200
Al128      Al  0.93064770  0.85613006  0.31848512     1.55600
O129        O  0.98671703  0.75430668  0.25753574    -0.77500
C130        C  0.88897837  0.88480560  0.24688745     0.98400
C131        C  0.87533508  0.79668311  0.33648836     0.93300
O132        O  0.90267683  0.77133780  0.33284835    -0.82800
O133        O  0.62198350  0.18887113  0.76446255    -0.82300
C134        C  0.53190734  0.05410563  0.78926979     0.97100
O135        O  0.54361709  0.06585601  0.75518750    -0.71400
O136        O  0.51950093  0.13883185  0.74058073    -0.75000
Al137      Al  0.57031774  0.11497470  0.73914035     1.49000
C138        C  0.51647173  0.17609022  0.74113069     0.92300
O139        O  0.54282760  0.17350877  0.84028265    -0.81200
O140        O  0.64622736  0.11690521  0.83413725    -0.74800
Al141      Al  0.58218119  0.18001972  0.80111339     1.90100
O142        O  0.57091217  0.12190661  0.86935708    -0.73900
O143        O  0.62442995  0.05883714  0.78917692    -0.73700
O144        O  0.54836604  0.06661902  0.82042337    -0.79400
O145        O  0.62025540  0.09060729  0.73225962    -0.77600
O146        O  0.58224909  0.12931827  0.78875889    -1.13700
O147        O  0.59289586  0.16282713  0.71277383    -0.72900
C148        C  0.61379929  0.19029755  0.72814913     0.97800
C149        C  0.54631549  0.15061956  0.87005059     0.94200
Al150      Al  0.59621381  0.09373120  0.82547430     1.55600
O151        O  0.54010271  0.19591350  0.76303047    -0.77500
C152        C  0.63752463  0.06559776  0.75438605     0.98400
C153        C  0.65275912  0.15252398  0.84212330     0.93300
O154        O  0.62505486  0.17775831  0.83977322    -0.82800
O155        O  0.79890562  0.25233792  0.87778073    -0.82300
C156        C  0.93962933  0.28191145  0.96239851     0.97100
O157        O  0.92847228  0.24787957  0.95066924    -0.71400
O158        O  0.85684058  0.23046134  0.97695415    -0.75000
Al159      Al  0.87905721  0.23050911  0.92538135     1.49000
C160        C  0.81966918  0.23039064  0.98138552     0.92300
O161        O  0.81750725  0.32977705  0.95524670    -0.81200
O162        O  0.87024241  0.32536455  0.85017332    -0.74800
Al163      Al  0.81038225  0.28989612  0.91636593     1.90100
O164        O  0.86721088  0.35991905  0.92561711    -0.73900
O165        O  0.93098173  0.28243045  0.86920976    -0.73700
O166        O  0.92532214  0.31262021  0.94652918    -0.79400
O167        O  0.90197366  0.22464425  0.87467151    -0.77600
O168        O  0.86188671  0.27922764  0.91403282    -1.13700
O169        O  0.83251786  0.20279217  0.90366017    -0.72900
C170        C  0.80383654  0.21574741  0.88261240     0.97800
C171        C  0.83918207  0.36011930  0.95091992     0.94200
Al172      Al  0.89581618  0.31708524  0.89926158     1.55600
O173        O  0.79831802  0.25221708  0.95900055    -0.77500
C174        C  0.92519639  0.24754712  0.85633091     0.98400
C175        C  0.83396870  0.33178808  0.84459507     0.93300
O176        O  0.80947557  0.32763198  0.87278331    -0.82800
O177        O  0.73015881  0.37277559  0.69808545    -0.82300
C178        C  0.70736814  0.45797917  0.55619758     0.97100
O179        O  0.74143101  0.44770788  0.56934873    -0.71400
O180        O  0.75668971  0.47182065  0.64177922    -0.75000
Al181      Al  0.75722574  0.42089382  0.61887851     1.49000
C182        C  0.75707638  0.47574342  0.67897958     0.92300
O183        O  0.65853811  0.45419168  0.67458074    -0.81200
O184        O  0.66169140  0.34674214  0.62544384    -0.74800
Al185      Al  0.69526958  0.41341389  0.68480488     1.90100
O186        O  0.62791612  0.42340237  0.62534487    -0.73900
O187        O  0.70656708  0.36363018  0.56567793    -0.73700
O188        O  0.67668804  0.44055071  0.56819781    -0.79400
O189        O  0.76430777  0.37138766  0.59481825    -0.77600
O190        O  0.70798435  0.40992539  0.63378399    -1.13700
O191        O  0.78216285  0.39676594  0.66657913    -0.72900
C192        C  0.76721598  0.37550216  0.69425670     0.97800
C193        C  0.62842221  0.45005927  0.65223652     0.94200
Al194      Al  0.67112290  0.39485403  0.59874638     1.55600
O195        O  0.73498487  0.45343478  0.69977102    -0.77500
C196        C  0.74217375  0.35247507  0.57135100     0.98400
C197        C  0.65134000  0.34363428  0.66106778     0.93300
O198        O  0.65424066  0.37329637  0.68381324    -0.82800
O199        O  0.29666727  0.20064425  0.08704487    -0.82300
C200        C  0.43804942  0.17534747  0.00181512     0.97100
O201        O  0.42527740  0.20882730  0.01308725    -0.71400
O202        O  0.35238611  0.22465425  0.98712046    -0.75000
Al203      Al  0.37590625  0.22441974  0.03876042     1.49000
C204        C  0.31511207  0.22330812  0.98247286     0.92300
O205        O  0.31554930  0.12415505  0.00817529    -0.81200
O206        O  0.37059322  0.12780012  0.11267509    -0.74800
Al207      Al  0.30847930  0.16345424  0.04761479     1.90100
O208        O  0.36684964  0.09499550  0.03656552    -0.73900
O209        O  0.42990103  0.17292771  0.09438981    -0.73700
O210        O  0.42426233  0.14396441  0.01671539    -0.79400
O211        O  0.39992701  0.23017374  0.08948729    -0.77600
O212        O  0.35996610  0.17520116  0.04965805    -1.13700
O213        O  0.32940668  0.25064167  0.06107522    -0.72900
C214        C  0.30136532  0.23732979  0.08241012     0.97800
C215        C  0.33791406  0.09427319  0.01188201     0.94200
Al216      Al  0.39507564  0.13792969  0.06370184     1.55600
O217        O  0.29464524  0.20131160  0.00531496    -0.77500
C218        C  0.42384621  0.20759326  0.10756763     0.98400
C219        C  0.33459070  0.12036133  0.11829190     0.93300
O220        O  0.30944072  0.12487441  0.09039759    -0.82800
O221        O  0.12261998  0.26335133  0.20102224    -0.82300
C222        C  0.03446835  0.40180896  0.18116974     0.97100
O223        O  0.04586784  0.38816076  0.21485014    -0.71400
O224        O  0.02168814  0.31495083  0.22731187    -0.75000
Al225      Al  0.07274208  0.33825923  0.22927059     1.49000
C226        C  0.01785577  0.27788082  0.22548883     0.92300
O227        O  0.04199411  0.28327558  0.12704694    -0.81200
O228        O  0.14663981  0.33785291  0.13385673    -0.74800
Al229      Al  0.08220232  0.27474575  0.16537816     1.90100
O230        O  0.07030086  0.33542218  0.09922189    -0.73900
O231        O  0.12728113  0.39485617  0.18055054    -0.73700
O232        O  0.05038223  0.38994781  0.14973237    -0.79400
O233        O  0.12285857  0.36233690  0.23689410    -0.77600
O234        O  0.08360408  0.32521139  0.17931396    -1.13700
O235        O  0.09629998  0.28956364  0.25386710    -0.72900
C236        C  0.11774899  0.26294210  0.23794206     0.97800
C237        C  0.04521122  0.30704059  0.09801856     0.94200
Al238      Al  0.09740844  0.36172509  0.14359533     1.55600
O239        O  0.04103243  0.25828196  0.20340438    -0.77500
C240        C  0.14039814  0.38743980  0.21536516     0.98400
C241        C  0.15218648  0.30249947  0.12438772     0.93300
O242        O  0.12407791  0.27759444  0.12620533    -0.82800
O243        O  0.23494533  0.07733062  0.26543476    -0.82300
C244        C  0.20996705  0.98839564  0.40375505     0.97100
O245        O  0.24414938  0.99858419  0.39120325    -0.71400
O246        O  0.25845758  0.97567977  0.31768743    -0.75000
Al247      Al  0.26056466  0.02609565  0.34249846     1.49000
C248        C  0.25711332  0.97330022  0.28027306     0.92300
O249        O  0.15903983  0.99885389  0.28461559    -0.81200
O250        O  0.16752764  0.10372552  0.33854440    -0.74800
Al251      Al  0.19803314  0.03814496  0.27663602     1.90100
O252        O  0.13043139  0.02846867  0.33510442    -0.73900
O253        O  0.21216230  0.08195723  0.39778479    -0.73700
O254        O  0.17943354  0.00627086  0.39157023    -0.79400
O255        O  0.26924827  0.07513814  0.36804323    -0.77600
O256        O  0.21132967  0.03895017  0.32769694    -1.13700
O257        O  0.28638913  0.05040549  0.29566581    -0.72900
C258        C  0.27192542  0.07285738  0.26861392     0.97800
C259        C  0.12924375  0.00339778  0.30678038     0.94200
Al260      Al  0.17524392  0.05377146  0.36310662     1.55600
O261        O  0.23519161  0.99704160  0.26079433    -0.77500
C262        C  0.24759623  0.09351709  0.39208011     0.98400
C263        C  0.15843137  0.10914317  0.30264600     0.93300
O264        O  0.15942440  0.08037026  0.27866813    -0.82800
O265        O  0.12249255  0.18131203  0.62940632    -0.82300
C266        C  0.02968088  0.05518932  0.68058591     0.97100
O267        O  0.04556615  0.06782242  0.64919316    -0.71400
O268        O  0.06644610  0.12399850  0.59937779    -0.75000
Al269      Al  0.09317667  0.09631004  0.64336462     1.49000
C270        C  0.04217037  0.15292746  0.59852751     0.92300
O271        O  0.03732838  0.19844093  0.70414348    -0.81200
O272        O  0.09204785  0.16409022  0.75531635    -0.74800
Al273      Al  0.07946023  0.18331299  0.66723059     1.90100
O274        O  0.01766585  0.14142233  0.72806430    -0.73900
O275        O  0.11833590  0.09242535  0.73657542    -0.73700
O276        O  0.04114125  0.06820540  0.71424603    -0.79400
O277        O  0.12295147  0.06182901  0.67959590    -0.77600
O278        O  0.08006361  0.13212037  0.67996673    -1.13700
O279        O  0.14273086  0.11992372  0.63355172    -0.72900
C280        C  0.14964245  0.15565591  0.62602175     0.97800
C281        C  0.01364978  0.17851883  0.72572596     0.94200
Al282      Al  0.06847394  0.11726910  0.72944525     1.55600
O283        O  0.04001813  0.17599236  0.62783953    -0.77500
C284        C  0.13590826  0.06800770  0.71463536     0.98400
C285        C  0.11380742  0.19174235  0.74153693     0.93300
O286        O  0.11896597  0.19509278  0.70469222    -0.82800
O287        O  0.15938735  0.37102279  0.77829701    -0.82300
C288        C  0.21472155  0.46024923  0.90401045     0.97100
O289        O  0.18319891  0.44462321  0.89130397    -0.71400
O290        O  0.13189725  0.42444711  0.83608980    -0.75000
Al291      Al  0.17670296  0.39771560  0.86306588     1.49000
C292        C  0.13041238  0.44958394  0.80752436     0.92300
O293        O  0.23630511  0.45561164  0.76028352    -0.81200
O294        O  0.28686187  0.39995414  0.79125688    -0.74800
Al295      Al  0.19819892  0.41380798  0.77601383     1.90100
O296        O  0.26136301  0.47377702  0.81748648    -0.73900
O297        O  0.26953843  0.37204858  0.86439656    -0.73700
O298        O  0.24832533  0.44885817  0.89089091    -0.79400
O299        O  0.21367332  0.36792041  0.89703977    -0.77600
O300        O  0.21238873  0.41188360  0.82677418    -1.13700
O301        O  0.16685244  0.34859951  0.83907806    -0.72900
C302        C  0.15771634  0.34283867  0.80338907     0.97800
C303        C  0.25927737  0.47808599  0.78026029     0.94200
Al304      Al  0.26250901  0.42249864  0.84050355     1.55600
O305        O  0.15972273  0.45349782  0.78451375    -0.77500
C306        C  0.24824360  0.35472717  0.88986774     0.98400
C307        C  0.27038849  0.38012716  0.76338222     0.93300
O308        O  0.23373874  0.37413540  0.76431294    -0.82800
O309        O  0.31346635  0.32822352  0.58184685    -0.82300
C310        C  0.44130274  0.27194539  0.50040900     0.97100
O311        O  0.42884756  0.30383212  0.51499457    -0.71400
O312        O  0.37164680  0.35428949  0.53182686    -0.75000
Al313      Al  0.39854736  0.31094167  0.56093090     1.49000
C314        C  0.34419009  0.35442067  0.50533702     0.92300
O315        O  0.29833417  0.24778146  0.50146596    -0.81200
O316        O  0.32975255  0.20044904  0.56213178    -0.74800
Al317      Al  0.31252268  0.28734689  0.54160388     1.90100
O318        O  0.35570418  0.22234726  0.48651307    -0.73900
O319        O  0.40137188  0.21948931  0.58945105    -0.73700
O320        O  0.42768918  0.23868015  0.51224589    -0.79400
O321        O  0.43247444  0.27616615  0.59310442    -0.77600
O322        O  0.36325689  0.27406850  0.54661423    -1.13700
O323        O  0.37205882  0.32127060  0.60915407    -0.72900
C324        C  0.33632687  0.33150988  0.61185452     0.97800
C325        C  0.31881891  0.22443638  0.48048670     0.94200
Al326      Al  0.37789590  0.22430311  0.53845488     1.55600
O327        O  0.32312388  0.32382918  0.50022439    -0.77500
C328        C  0.42621382  0.24154957  0.60667600     0.98400
C329        C  0.30159482  0.21626907  0.58158053     0.93300
O330        O  0.29798168  0.25326352  0.58254320    -0.82800
O331        O  0.65787912  0.08046958  0.18012663    -0.82300
C332        C  0.71195970  0.99424469  0.05486007     0.97100
O333        O  0.68090844  0.01160500  0.06577311    -0.71400
O334        O  0.63135445  0.03034924  0.12237030    -0.75000
Al335      Al  0.67554001  0.05782180  0.09577168     1.49000
C336        C  0.63080920  0.00409407  0.14995578     0.92300
O337        O  0.73629561  0.99944139  0.19933441    -0.81200
O338        O  0.78555400  0.05555005  0.16559858    -0.74800
Al339      Al  0.69796632  0.03988756  0.18271862     1.90100
O340        O  0.75941180  0.98029527  0.14239637    -0.73900
O341        O  0.76920288  0.08002767  0.09250079    -0.73700
O342        O  0.74567132  0.00367007  0.06938814    -0.79400
O343        O  0.71187601  0.08780632  0.06245465    -0.77600
O344        O  0.71163640  0.04263802  0.13182864    -1.13700
O345        O  0.66661647  0.10676139  0.12151922    -0.72900
C346        C  0.65598755  0.11020062  0.15706698     0.97800
C347        C  0.75801603  0.97627142  0.17959425     0.94200
Al348      Al  0.76099718  0.03096351  0.11815816     1.55600
O349        O  0.66058750  0.99958664  0.17270222    -0.77500
C350        C  0.74759254  0.09856136  0.06802642     0.98400
C351        C  0.77051604  0.07733342  0.19247771     0.93300
O352        O  0.73344527  0.08013705  0.19597877    -0.82800
O353        O  0.80789677  0.13337753  0.36857569    -0.82300
C354        C  0.93684818  0.17749136  0.46227391     0.97100
O355        O  0.92275906  0.14689192  0.44633572    -0.71400
O356        O  0.86384173  0.10040238  0.42542472    -0.75000
Al357      Al  0.89376707  0.14271441  0.39861538     1.49000
C358        C  0.83459286  0.10073255  0.44942240     0.92300
O359        O  0.79468164  0.20794389  0.45400916    -0.81200
O360        O  0.83195652  0.25750329  0.40075129    -0.74800
Al361      Al  0.80799264  0.17088126  0.41174800     1.90100
O362        O  0.85277787  0.22840684  0.47487735    -0.73900
O363        O  0.90232580  0.23573999  0.37466117    -0.73700
O364        O  0.92523737  0.21157604  0.45114897    -0.79400
O365        O  0.92977814  0.17734444  0.36894411    -0.77600
O366        O  0.85984471  0.18079654  0.41189462    -1.13700
O367        O  0.86956635  0.13410440  0.34879854    -0.72900
C368        C  0.83347958  0.12801779  0.34177270     0.97800
C369        C  0.81549268  0.22776330  0.47849898     0.94200
Al370      Al  0.87712463  0.22922135  0.42418077     1.55600
O371        O  0.81251939  0.13086628  0.45120749    -0.77500
C372        C  0.92542914  0.21280001  0.35665849     0.98400
C373        C  0.80453373  0.24531033  0.37775789     0.93300
O374        O  0.79935117  0.20893564  0.37217635    -0.82800
O375        O  0.62579029  0.27496938  0.33619932    -0.82300
C376        C  0.53102374  0.39827969  0.28380791     0.97100
O377        O  0.54656557  0.38488304  0.31518977    -0.71400
O378        O  0.56947491  0.32962849  0.36509905    -0.75000
Al379      Al  0.59470347  0.35846280  0.32099082     1.49000
C380        C  0.54606055  0.29982690  0.36621308     0.92300
O381        O  0.54109651  0.25508838  0.26001799    -0.81200
O382        O  0.59344744  0.28912073  0.20920528    -0.74800
Al383      Al  0.58298729  0.27163861  0.29761625     1.90100
O384        O  0.51925452  0.31156718  0.23626404    -0.73900
O385        O  0.61976211  0.36195789  0.22793211    -0.73700
O386        O  0.54250494  0.38585602  0.24999711    -0.79400
O387        O  0.62316465  0.39380400  0.28445157    -0.77600
O388        O  0.58185492  0.32247064  0.28466527    -1.13700
O389        O  0.64465677  0.33671598  0.33038340    -0.72900
C390        C  0.65233084  0.30144832  0.33872089     0.97800
C391        C  0.51657707  0.27423978  0.23833629     0.94200
Al392      Al  0.56992769  0.33664631  0.23483123     1.55600
O393        O  0.54342554  0.27696533  0.33666164    -0.77500
C394        C  0.63682272  0.38708227  0.24992680     0.98400
C395        C  0.61523213  0.26218130  0.22459810     0.93300
O396        O  0.62321860  0.26327666  0.26102271    -0.82800
O397        O  0.21531399  0.62385531  0.08469186    -0.82300
C398        C  0.08425059  0.67637067  0.00067123     0.97100
O399        O  0.09802615  0.64475843  0.01523558    -0.71400
O400        O  0.15619234  0.59516524  0.03317131    -0.75000
Al401      Al  0.12915545  0.63829685  0.06145497     1.49000
C402        C  0.18411784  0.59491796  0.00762662     0.92300
O403        O  0.22739832  0.70133884  0.00117699    -0.81200
O404        O  0.19598748  0.75052122  0.05874579    -0.74800
Al405      Al  0.21494040  0.66329202  0.04290669     1.90100
O406        O  0.16939508  0.72551639  0.98475616    -0.73900
O407        O  0.12594886  0.73046207  0.08794349    -0.73700
O408        O  0.09774257  0.70976585  0.01186993    -0.79400
O409        O  0.09574451  0.67325734  0.09304249    -0.77600
O410        O  0.16383264  0.67550355  0.04666128    -1.13700
O411        O  0.15595648  0.62833915  0.10995456    -0.72900
C412        C  0.19216763  0.62045504  0.11405259     0.97800
C413        C  0.20627908  0.72338677  0.97890881     0.94200
Al414      Al  0.14811596  0.72494767  0.03679736     1.55600
O415        O  0.20570536  0.62521674  0.00308880    -0.77500
C416        C  0.10219894  0.70797200  0.10608132     0.98400
C417        C  0.22440126  0.73620477  0.07937421     0.93300
O418        O  0.22878715  0.69935442  0.08247848    -0.82800
O419        O  0.40117471  0.77453049  0.12902509    -0.82300
C420        C  0.49506781  0.90034397  0.17697250     0.97100
O421        O  0.47899767  0.88711752  0.14590203    -0.71400
O422        O  0.45629228  0.83139806  0.09695934    -0.75000
Al423      Al  0.43100996  0.85937268  0.14105420     1.49000
C424        C  0.48008405  0.80205728  0.09595459     0.92300
O425        O  0.48880983  0.75820212  0.20267681    -0.81200
O426        O  0.43641217  0.79159023  0.25402610    -0.74800
Al427      Al  0.44524650  0.77254495  0.16615245     1.90100
O428        O  0.50879846  0.81596237  0.22408228    -0.73900
O429        O  0.40793752  0.86245513  0.23474759    -0.73700
O430        O  0.48348639  0.88841929  0.21093132    -0.79400
O431        O  0.40243403  0.89387644  0.17770446    -0.77600
O432        O  0.44491488  0.82371645  0.17792096    -1.13700
O433        O  0.38117918  0.83612602  0.13198532    -0.72900
C434        C  0.37424357  0.80039938  0.12481585     0.97800
C435        C  0.51301241  0.77891188  0.22309506     0.94200
Al436      Al  0.45789077  0.83883714  0.22695813     1.55600
O437        O  0.48335410  0.77930065  0.12574333    -0.77500
C438        C  0.38985469  0.88690051  0.21271832     0.98400
C439        C  0.41389641  0.76411419  0.24123471     0.93300
O440        O  0.40679097  0.76107090  0.20464886    -0.82800
O441        O  0.37112975  0.58497676  0.28133709    -0.82300
C442        C  0.31637950  0.49433111  0.40651565     0.97100
O443        O  0.34780878  0.51058112  0.39466010    -0.71400
O444        O  0.39822770  0.53101913  0.33919148    -0.75000
Al445      Al  0.35396968  0.55776931  0.36604022     1.49000
C446        C  0.39902516  0.50625595  0.31056066     0.92300
O447        O  0.29364082  0.50180330  0.26259610    -0.81200
O448        O  0.24360685  0.55621484  0.29407747    -0.74800
Al449      Al  0.33170741  0.54302820  0.27883897     1.90100
O450        O  0.26996065  0.48178333  0.31955082    -0.73900
O451        O  0.26077379  0.58208665  0.36714931    -0.73700
O452        O  0.28275290  0.50545560  0.39284049    -0.79400
O453        O  0.31715387  0.58715169  0.39960510    -0.77600
O454        O  0.31808054  0.54392906  0.32960132    -1.13700
O455        O  0.36359727  0.60723794  0.34171717    -0.72900
C456        C  0.37303186  0.61299049  0.30613624     0.97800
C457        C  0.27180782  0.47817786  0.28233613     0.94200
Al458      Al  0.26825472  0.53252917  0.34288796     1.55600
O459        O  0.36963321  0.50308903  0.28720978    -0.77500
C460        C  0.28213669  0.59955959  0.39248456     0.98400
C461        C  0.25941309  0.57791279  0.26723596     0.93300
O462        O  0.29624561  0.58322110  0.26757351    -0.82800
O463        O  0.71368977  0.83093148  0.87363742    -0.82300
C464        C  0.58555612  0.77826760  0.96103470     0.97100
O465        O  0.59890171  0.80952086  0.94554760    -0.71400
O466        O  0.65642937  0.85858021  0.92714903    -0.75000
Al467      Al  0.62831037  0.81609551  0.89894631     1.49000
C468        C  0.68463244  0.85806869  0.95275789     0.92300
O469        O  0.72936483  0.75117909  0.95591482    -0.81200
O470        O  0.69455384  0.70388696  0.89842220    -0.74800
Al471      Al  0.71462289  0.79070113  0.91518378     1.90100
O472        O  0.67182869  0.72788289  0.97417891    -0.73900
O473        O  0.62309273  0.72419101  0.87298563    -0.73700
O474        O  0.59874279  0.74467930  0.95020306    -0.79400
O475        O  0.59369924  0.78161945  0.86758359    -0.77600
O476        O  0.66332789  0.77866837  0.91274267    -1.13700
O477        O  0.65316628  0.82663885  0.85015487    -0.72900
C478        C  0.68910559  0.83474813  0.84509754     0.97800
C479        C  0.70904816  0.72868511  0.97841082     0.94200
Al480      Al  0.64781732  0.72924880  0.92297795     1.55600
O481        O  0.70674457  0.82798493  0.95597743    -0.77500
C482        C  0.59961341  0.74687504  0.85464803     0.98400
C483        C  0.72209797  0.71872165  0.87712304     0.93300
O484        O  0.72612931  0.75565578  0.87457256    -0.82800
O485        O  0.86589866  0.87153729  0.67937418    -0.82300
C486        C  0.80974966  0.96549159  0.55655845     0.97100
O487        O  0.84119298  0.94871314  0.56813495    -0.71400
O488        O  0.89224292  0.92643050  0.62365795    -0.75000
Al489      Al  0.84742100  0.90051065  0.59587142     1.49000
C490        C  0.89378289  0.95052161  0.65285267     0.92300
O491        O  0.78862264  0.95315694  0.70118590    -0.81200
O492        O  0.73807458  0.89932990  0.66642489    -0.74800
Al493      Al  0.82635799  0.91293285  0.68345566     1.90100
O494        O  0.76383633  0.97496097  0.64502890    -0.73900
O495        O  0.75409886  0.87644143  0.59258006    -0.73700
O496        O  0.77629876  0.95459367  0.57049245    -0.79400
O497        O  0.81061929  0.87205540  0.56128443    -0.77600
O498        O  0.81192806  0.91335805  0.63253844    -1.13700
O499        O  0.85703067  0.84990844  0.61897520    -0.72900
C500        C  0.86842424  0.84391286  0.65414734     0.97800
C501        C  0.76648374  0.97731800  0.68237129     0.94200
Al502      Al  0.76209256  0.92522847  0.61920121     1.55600
O503        O  0.86448855  0.95340900  0.67600214    -0.77500
C504        C  0.77575765  0.85919708  0.56763172     0.98400
C505        C  0.75356376  0.87677433  0.69289831     0.93300
O506        O  0.79059373  0.87241670  0.69445590    -0.82800
O507        O  0.89988377  0.68006568  0.83057247    -0.82300
C508        C  0.99333327  0.55387863  0.78464638     0.97100
O509        O  0.97746198  0.56743334  0.81551417    -0.71400
O510        O  0.95414514  0.62379791  0.86389271    -0.75000
Al511      Al  0.92923368  0.59534560  0.81923967     1.49000
C512        C  0.97836916  0.65292657  0.86501534     0.92300
O513        O  0.98753939  0.69629107  0.75862673    -0.81200
O514        O  0.93487217  0.66343916  0.70568277    -0.74800
Al515      Al  0.94400428  0.68183772  0.79422440     1.90100
O516        O  0.00733296  0.63878477  0.73694030    -0.73900
O517        O  0.90636588  0.59132406  0.72511047    -0.73700
O518        O  0.98195700  0.56609026  0.75046263    -0.79400
O519        O  0.90114314  0.56029027  0.78242933    -0.77600
O520        O  0.94348897  0.63075078  0.78243969    -1.13700
O521        O  0.87905382  0.61881597  0.82649242    -0.72900
C522        C  0.87217533  0.65472014  0.83287231     0.97800
C523        C  0.01157750  0.67587534  0.73833010     0.94200
Al524      Al  0.95626986  0.61563522  0.73352297     1.55600
O525        O  0.98202938  0.67523483  0.83502196    -0.77500
C526        C  0.88928991  0.56594290  0.74680618     0.98400
C527        C  0.91399837  0.69178106  0.71901175     0.93300
O528        O  0.90571218  0.69274385  0.75528316    -0.82800
C529        C  0.88423943  0.80445131  0.66628885    -0.06000
C530        C  0.87224441  0.76937928  0.64656675    -0.33400
C531        C  0.88320977  0.73164283  0.66153230     0.35900
C532        C  0.90643810  0.72891960  0.69642630    -0.06300
C533        C  0.91979764  0.76399714  0.71451125    -0.33300
C534        C  0.90945114  0.80117585  0.69965645     0.35800
H535        H  0.85293849  0.77116537  0.62064633     0.16100
O536        O  0.86965972  0.69805649  0.64303225    -0.60800
H537        H  0.93765581  0.76264187  0.74145228     0.16100
O538        O  0.92340660  0.83421101  0.71887998    -0.60900
H539        H  0.94732336  0.84247261  0.70382806     0.43100
H540        H  0.84539263  0.69019054  0.65776510     0.43100
C541        C  0.70295912  0.84508700  0.80470157    -0.06000
C542        C  0.73621821  0.82526788  0.79035557    -0.33400
C543        C  0.74905775  0.83093880  0.75137872     0.35900
C544        C  0.73074934  0.85979953  0.72665477    -0.06300
C545        C  0.69620210  0.87862367  0.74033441    -0.33300
C546        C  0.68166136  0.87057051  0.77879844     0.35800
H547        H  0.75223163  0.80490754  0.80949337     0.16100
O548        O  0.78122913  0.80970736  0.73853583    -0.60800
H549        H  0.68175858  0.90110205  0.72219119     0.16100
O550        O  0.64831207  0.88976351  0.79170011    -0.60900
H551        H  0.62573996  0.87267843  0.78339286     0.43100
H552        H  0.77027044  0.78375684  0.73004979     0.43100
C553        C  0.75390599  0.69486385  0.85859672    -0.06000
C554        C  0.77725232  0.71377933  0.82956515    -0.33400
C555        C  0.81565785  0.70109265  0.82145068     0.35900
C556        C  0.83107985  0.66749881  0.84097289    -0.06300
C557        C  0.80613475  0.64537720  0.86627753    -0.33300
C558        C  0.76778725  0.65911046  0.87552849     0.35800
H559        H  0.76677880  0.74039990  0.81494568     0.16100
O560        O  0.83827951  0.72255572  0.79517107    -0.60800
H561        H  0.81711961  0.61858154  0.88044145     0.16100
O562        O  0.74571065  0.63921512  0.90340095    -0.60900
H563        H  0.73187185  0.61793374  0.88841762     0.43100
H564        H  0.82864082  0.71474802  0.76831840     0.43100
C565        C  0.50446052  0.79408874  0.05970914    -0.06000
C566        C  0.50816677  0.82330223  0.03003238    -0.33400
C567        C  0.53280022  0.81764087  0.99701169     0.35900
C568        C  0.55492898  0.78219166  0.99288534    -0.06300
C569        C  0.54966075  0.75210186  0.02141646    -0.33300
C570        C  0.52490636  0.75776731  0.05452481     0.35800
H571        H  0.49251174  0.85117179  0.03274493     0.16100
O572        O  0.53545360  0.84752389  0.96925849    -0.60800
H573        H  0.56582340  0.72450834  0.01885333     0.16100
O574        O  0.52072772  0.72730083  0.08141855    -0.60900
H575        H  0.54406198  0.72943352  0.09951413     0.43100
H576        H  0.51635581  0.84018396  0.94789461     0.43100
C577        C  0.40059862  0.73108160  0.26684723    -0.06000
C578        C  0.42936224  0.70881513  0.28767428    -0.33400
C579        C  0.42094603  0.67002517  0.30057571     0.35900
C580        C  0.38329420  0.65341021  0.29310618    -0.06300
C581        C  0.35381860  0.67651705  0.27464176    -0.33300
C582        C  0.36221448  0.71505925  0.26156080     0.35800
H583        H  0.45924011  0.72033820  0.29126755     0.16100
O584        O  0.45007682  0.64807064  0.31897451    -0.60800
H585        H  0.32436118  0.66433012  0.26971318     0.16100
O586        O  0.33331122  0.73607443  0.24168850    -0.60900
H587        H  0.32429679  0.75642661  0.26077373     0.43100
H588        H  0.46357422  0.63384275  0.29714458     0.43100
C589        C  0.00273121  0.66135786  0.90156723    -0.06000
C590        C  0.00189990  0.63507721  0.93417622    -0.33400
C591        C  0.02680340  0.64077752  0.96745600     0.35900
C592        C  0.05312102  0.67346227  0.96901141    -0.06300
C593        C  0.05233198  0.70105054  0.93762566    -0.33300
C594        C  0.02760655  0.69532555  0.90423496     0.35800
H595        H  0.98255396  0.60937281  0.93359709     0.16100
O596        O  0.02490458  0.61432661  0.99858898    -0.60800
H597        H  0.07225968  0.72633751  0.93810337     0.16100
O598        O  0.02917652  0.72263065  0.87385564    -0.60900
H599        H  0.00831709  0.74237068  0.88008628     0.43100
H600        H  0.04052010  0.59101992  0.99000618     0.43100
C601        C  0.25636880  0.76098652  0.09640118    -0.06000
C602        C  0.27371626  0.79123789  0.07328862    -0.33400
C603        C  0.31204452  0.80533655  0.08257374     0.35900
C604        C  0.33350659  0.78827750  0.11453076    -0.06300
C605        C  0.31502435  0.76026002  0.13900561    -0.33300
C606        C  0.27648129  0.74738792  0.13080753     0.35800
H607        H  0.25891414  0.80180250  0.04649334     0.16100
O608        O  0.32898472  0.83412064  0.05913854    -0.60800
H609        H  0.33075923  0.74803475  0.16447268     0.16100
O610        O  0.25959149  0.71945087  0.15525822    -0.60900
H611        H  0.24266874  0.73462511  0.17376504     0.43100
H612        H  0.34423663  0.81956052  0.03874988     0.43100
C613        C  0.20801962  0.60949686  0.15384609    -0.06000
C614        C  0.18355148  0.59193221  0.18304790    -0.33400
C615        C  0.19854559  0.58307949  0.22140593     0.35900
C616        C  0.23808172  0.59310124  0.23129879    -0.06300
C617        C  0.26125723  0.61288358  0.20247872    -0.33300
C618        C  0.24721271  0.61975143  0.16410734     0.35800
H619        H  0.15308078  0.58420129  0.17581250     0.16100
O620        O  0.17497082  0.56321618  0.24804664    -0.60800
H621        H  0.29169494  0.62152111  0.20877001     0.16100
O622        O  0.27212359  0.63741696  0.13708653    -0.60900
H623        H  0.28801249  0.61548614  0.12586700     0.43100
H624        H  0.16213980  0.58419950  0.26395637     0.43100
C625        C  0.49913238  0.42866425  0.28836269    -0.06000
C626        C  0.49497051  0.44771421  0.32544697    -0.33400
C627        C  0.46347443  0.47376199  0.33281817     0.35900
C628        C  0.43459247  0.48100771  0.30314729    -0.06300
C629        C  0.43928740  0.46286832  0.26567593    -0.33300
C630        C  0.47115093  0.43712796  0.25813907     0.35800
H631        H  0.51604233  0.44201796  0.34935312     0.16100
O632        O  0.46033782  0.49042485  0.36980937    -0.60800
H633        H  0.41787183  0.46832422  0.24202980     0.16100
O634        O  0.47402728  0.41986781  0.22141748    -0.60900
H635        H  0.45881905  0.39471717  0.22354656     0.43100
H636        H  0.47606747  0.51529135  0.36834428     0.43100
C637        C  0.81331658  0.99851008  0.52670490    -0.06000
C638        C  0.78762320  0.03125929  0.52760632    -0.33400
C639        C  0.79375383  0.06446097  0.50258378     0.35900
C640        C  0.82604044  0.06543990  0.47556286    -0.06300
C641        C  0.85082257  0.03206068  0.47395211    -0.33300
C642        C  0.84495928  0.99922645  0.49918006     0.35800
H643        H  0.76347006  0.03177663  0.54876748     0.16100
O644        O  0.76866054  0.09623928  0.50587941    -0.60800
H645        H  0.87546172  0.03147673  0.45337942     0.16100
O646        O  0.87018683  0.96752394  0.49616435    -0.60900
H647        H  0.89439181  0.97517203  0.51138880     0.43100
H648        H  0.74512153  0.08950408  0.48923958     0.43100
C649        C  0.77318351  0.27147537  0.36258193    -0.06000
C650        C  0.75224216  0.29432264  0.39019120    -0.33400
C651        C  0.71244471  0.30437608  0.38289577     0.35900
C652        C  0.69351794  0.29119035  0.34794390    -0.06300
C653        C  0.71554460  0.27177445  0.31880632    -0.33300
C654        C  0.75540249  0.26261581  0.32561149     0.35800
H655        H  0.76537051  0.30101776  0.41895762     0.16100
O656        O  0.69176874  0.32532617  0.41078433    -0.60800
H657        H  0.70167967  0.26337151  0.29085484     0.16100
O658        O  0.77588766  0.24202383  0.29733014    -0.60900
H659        H  0.79125978  0.26238403  0.28252628     0.43100
H660        H  0.68219854  0.30519876  0.43016673     0.43100
C661        C  0.52805660  0.92952569  0.17235487    -0.06000
C662        C  0.53109322  0.95131188  0.13653937    -0.33400
C663        C  0.56395767  0.97576486  0.12879969     0.35900
C664        C  0.59486013  0.97912703  0.15715507    -0.06300
C665        C  0.59150622  0.95779738  0.19326590    -0.33300
C666        C  0.55856349  0.93338241  0.20101284     0.35800
H667        H  0.50812124  0.94882305  0.11389548     0.16100
O668        O  0.56577443  0.99551162  0.09303065    -0.60800
H669        H  0.61475728  0.95970488  0.21567458     0.16100
O670        O  0.55778264  0.91167756  0.23566292    -0.60900
H671        H  0.54511230  0.92919332  0.25545432     0.43100
H672        H  0.58067128  0.97765825  0.07514226     0.43100
C673        C  0.70776510  0.96124790  0.02607138    -0.06000
C674        C  0.72965034  0.92639708  0.03192757    -0.33400
C675        C  0.72202766  0.89256930  0.00894665     0.35900
C676        C  0.69270502  0.89335105  0.97838587    -0.06300
C677        C  0.67150578  0.92873353  0.97199579    -0.33300
C678        C  0.67849184  0.96220814  0.99572382     0.35800
H679        H  0.75158824  0.92475450  0.05568241     0.16100
O680        O  0.74320306  0.85877497  0.01717902    -0.60800
H681        H  0.64915141  0.93051165  0.94866556     0.16100
O682        O  0.65702995  0.99606449  0.98848691    -0.60900
H683        H  0.63122519  0.99181739  0.00200919     0.43100
H684        H  0.72772051  0.84465181  0.03793656     0.43100
C685        C  0.79463298  0.09584791  0.22422858    -0.06000
C686        C  0.82465959  0.07374076  0.24328302    -0.33400
C687        C  0.83833583  0.08434506  0.28141412     0.35900
C688        C  0.82103550  0.11658502  0.30127064    -0.06300
C689        C  0.79288452  0.13994495  0.28125727    -0.33300
C690        C  0.78040864  0.13043288  0.24270481     0.35800
H691        H  0.83537782  0.04664133  0.22998468     0.16100
O692        O  0.86617661  0.06116666  0.30030803    -0.60800
H693        H  0.78024151  0.16547963  0.29576688     0.16100
O694        O  0.75218808  0.15361465  0.22428202    -0.60900
H695        H  0.76719272  0.17591108  0.21215913     0.43100
H696        H  0.89220169  0.07261334  0.29257815     0.43100
C697        C  0.64260799  0.14914970  0.17238596    -0.06000
C698        C  0.64203139  0.18335430  0.14773566    -0.33400
C699        C  0.63294481  0.22096087  0.16344402     0.35900
C700        C  0.62501097  0.22461782  0.20427668    -0.06300
C701        C  0.62487416  0.19025524  0.22821649    -0.33300
C702        C  0.63302029  0.15317933  0.21284392     0.35800
H703        H  0.64929006  0.18109460  0.11646041     0.16100
O704        O  0.63279060  0.25366604  0.13901423    -0.60800
H705        H  0.61783601  0.19176588  0.25959888     0.16100
O706        O  0.63253225  0.12124264  0.23833386    -0.60900
H707        H  0.60449089  0.11205508  0.23850555     0.43100
H708        H  0.66042557  0.26398674  0.13992821     0.43100
C709        C  0.32029006  0.46086480  0.43546955    -0.06000
C710        C  0.29454634  0.42821520  0.43314438    -0.33400
C711        C  0.30180965  0.39360185  0.45557826     0.35900
C712        C  0.33541827  0.39099966  0.48129791    -0.06300
C713        C  0.36010534  0.42444302  0.48480613    -0.33300
C714        C  0.35299767  0.45885625  0.46213010     0.35800
H715        H  0.26954375  0.42885400  0.41261202     0.16100
O716        O  0.27618093  0.36222969  0.45125809    -0.60800
H717        H  0.38551548  0.42385023  0.50480925     0.16100
O718        O  0.37810667  0.49066338  0.46659660    -0.60900
H719        H  0.40198807  0.48415142  0.45079826     0.43100
H720        H  0.25548032  0.36621261  0.47173810     0.43100
C721        C  0.47158294  0.27484457  0.46848781    -0.06000
C722        C  0.49965009  0.30579070  0.46967874    -0.33400
C723        C  0.52466402  0.31372476  0.43730649     0.35900
C724        C  0.52166833  0.29090947  0.40231666    -0.06300
C725        C  0.49448858  0.25892742  0.40181929    -0.33300
C726        C  0.46989285  0.25069091  0.43451605     0.35800
H727        H  0.50169502  0.32454821  0.49569718     0.16100
O728        O  0.55191578  0.34386058  0.44039836    -0.60800
H729        H  0.49155392  0.24058233  0.37559736     0.16100
O730        O  0.44235084  0.22080614  0.43168910    -0.60900
H731        H  0.45563765  0.19709989  0.44321008     0.43100
H732        H  0.53701315  0.36836881  0.43364794     0.43100
C733        C  0.21035305  0.49246874  0.93411357    -0.06000
C734        C  0.17492729  0.49433691  0.95630084    -0.33400
C735        C  0.16634656  0.52668678  0.98086823     0.35900
C736        C  0.19299851  0.55884256  0.98342593    -0.06300
C737        C  0.22914551  0.55638507  0.96236062    -0.33300
C738        C  0.23793188  0.52366171  0.93807860     0.35800
H739        H  0.15310968  0.47076438  0.95404615     0.16100
O740        O  0.13094463  0.52715470  0.00084540    -0.60800
H741        H  0.25068635  0.58023000  0.96424759     0.16100
O742        O  0.27294515  0.52318681  0.91744720    -0.60900
H743        H  0.26840642  0.54075570  0.89409128     0.43100
H744        H  0.13585973  0.51172710  0.02561438     0.43100
C745        C  0.02622887  0.52425154  0.78920795    -0.06000
C746        C  0.05404085  0.51930672  0.75867503    -0.33400
C747        C  0.08750851  0.49484116  0.76397361     0.35900
C748        C  0.09401782  0.47436788  0.80045779    -0.06300
C749        C  0.06535194  0.47810613  0.83039785    -0.33300
C750        C  0.03193665  0.50261630  0.82511734     0.35800
H751        H  0.05050913  0.53538793  0.73084729     0.16100
O752        O  0.11392613  0.49173390  0.73325027    -0.60800
H753        H  0.06917557  0.46255081  0.85848556     0.16100
O754        O  0.00536139  0.50557983  0.85572582    -0.60900
H755        H  0.98485456  0.48512424  0.85022184     0.43100
H756        H  0.10531646  0.46796234  0.71821389     0.43100
C757        C  0.29019945  0.36855121  0.72569595    -0.06000
C758        C  0.26558792  0.36561762  0.69163448    -0.33400
C759        C  0.28027236  0.35455106  0.65481738     0.35900
C760        C  0.32093915  0.34636546  0.65044462    -0.06300
C761        C  0.34617376  0.35001149  0.68419062    -0.33300
C762        C  0.33107996  0.36135842  0.72158141     0.35800
H763        H  0.23407784  0.37193816  0.69322728     0.16100
O764        O  0.25413284  0.35163491  0.62339323    -0.60800
H765        H  0.37757958  0.34352096  0.68178484     0.16100
O766        O  0.35606571  0.36356807  0.75392325    -0.60900
H767        H  0.36951231  0.38964826  0.75143310     0.43100
H768        H  0.24304800  0.32440054  0.62514243     0.43100
C769        C  0.01627809  0.16034466  0.56282636    -0.06000
C770        C  0.01620288  0.13354164  0.53092854    -0.33400
C771        C  0.99155781  0.13948327  0.49750571     0.35900
C772        C  0.96627207  0.17281663  0.49519302    -0.06300
C773        C  0.96703652  0.20017530  0.52639797    -0.33300
C774        C  0.99127566  0.19407011  0.56006133     0.35800
H775        H  0.03505718  0.10756507  0.53195508     0.16100
O776        O  0.99232116  0.11228925  0.46732626    -0.60800
H777        H  0.94766473  0.22579388  0.52540808     0.16100
O778        O  0.99018124  0.22149936  0.59000327    -0.60900
H779        H  0.96667612  0.21421886  0.60618855     0.43100
H780        H  0.01171689  0.12297037  0.44787242     0.43100
C781        C  0.99698010  0.02531797  0.67662110    -0.06000
C782        C  0.99545374  0.00104214  0.64263450    -0.33400
C783        C  0.96278573  0.97614981  0.63483357     0.35900
C784        C  0.93016069  0.97515574  0.66100707    -0.06300
C785        C  0.93232678  0.99853506  0.69574293    -0.33300
C786        C  0.96530890  0.02307976  0.70375680     0.35800
H787        H  0.01957184  0.00182490  0.62143415     0.16100
O788        O  0.96312399  0.95324235  0.60125207    -0.60800
H789        H  0.90803458  0.99830365  0.71673617     0.16100
O790        O  0.96501177  0.04650892  0.73696933    -0.60900
H791        H  0.97802631  0.03043609  0.75815482     0.43100
H792        H  0.95094238  0.96995912  0.58006809     0.43100
C793        C  0.12929589  0.22434908  0.76642522    -0.06000
C794        C  0.16514961  0.24240581  0.75516342    -0.33400
C795        C  0.17468596  0.28067397  0.76766321     0.35900
C796        C  0.14774150  0.30219117  0.79090276    -0.06300
C797        C  0.11353375  0.28308792  0.80517457    -0.33300
C798        C  0.10435233  0.24419712  0.79330113     0.35800
H799        H  0.18501957  0.22744045  0.73497372     0.16100
O800        O  0.21032568  0.29688577  0.75656203    -0.60800
H801        H  0.09340136  0.29870777  0.82459178     0.16100
O802        O  0.06941056  0.22721931  0.80542607    -0.60900
H803        H  0.07494418  0.21673931  0.83254913     0.43100
H804        H  0.22858693  0.29177468  0.77935282     0.43100
C805        C  0.19055828  0.16779689  0.61612032    -0.06000
C806        C  0.20837335  0.19781568  0.63864326    -0.33400
C807        C  0.24733193  0.20986865  0.63118817     0.35900
C808        C  0.26872586  0.19320397  0.59937116    -0.06300
C809        C  0.25189480  0.16128183  0.57844892    -0.33300
C810        C  0.21322460  0.14804057  0.58721680     0.35800
H811        H  0.19192121  0.21207885  0.66214994     0.16100
O812        O  0.26332678  0.23998720  0.65350055    -0.60800
H813        H  0.26750548  0.14847142  0.55354101     0.16100
O814        O  0.19682593  0.11781640  0.56543571    -0.60900
H815        H  0.20481176  0.09318405  0.57962663     0.43100
H816        H  0.28237374  0.22692530  0.67201962     0.43100
C817        C  0.35351455  0.90698769  0.22844759    -0.06000
C818        C  0.33527012  0.93798024  0.20696040    -0.33400
C819        C  0.30174726  0.95768414  0.22192561     0.35900
C820        C  0.28599244  0.94713102  0.25950791    -0.06300
C821        C  0.30322307  0.91517667  0.28019652    -0.33300
C822        C  0.33606235  0.89489950  0.26490535     0.35800
H823        H  0.34750373  0.94765798  0.17876992     0.16100
O824        O  0.28653128  0.98912651  0.20076508    -0.60800
H825        H  0.29178413  0.90641027  0.30903197     0.16100
O826        O  0.35126746  0.86376486  0.28657594    -0.60900
H827        H  0.33765047  0.83989516  0.27602017     0.43100
H828        H  0.26612330  0.97748106  0.18283429     0.43100
C829        C  0.26444195  0.12906222  0.41305121    -0.06000
C830        C  0.30425806  0.14024150  0.40635257    -0.33400
C831        C  0.32161644  0.17270902  0.42596674     0.35900
C832        C  0.29925132  0.19541247  0.45296587    -0.06300
C833        C  0.25890558  0.18553892  0.45815685    -0.33300
C834        C  0.24151556  0.15299630  0.43848205     0.35800
H835        H  0.32252520  0.12335500  0.38617893     0.16100
O836        O  0.36063240  0.18185745  0.41850281    -0.60800
H837        H  0.24101593  0.20208905  0.47893153     0.16100
O838        O  0.20229648  0.14441115  0.44528992    -0.60900
H839        H  0.18744400  0.15834162  0.42375405     0.43100
H840        H  0.37639468  0.16240537  0.43422807     0.43100
C841        C  0.99004350  0.25794354  0.25382231    -0.06000
C842        C  0.96042744  0.28066545  0.27201616    -0.33400
C843        C  0.93909690  0.26623663  0.30474840     0.35900
C844        C  0.94707612  0.22804727  0.32071332    -0.06300
C845        C  0.97558088  0.20457458  0.30147730    -0.33300
C846        C  0.99691870  0.21913737  0.26844767     0.35800
H847        H  0.95461414  0.31061263  0.26168565     0.16100
O848        O  0.91137063  0.29058777  0.32158829    -0.60800
H849        H  0.98219725  0.17512569  0.31267513     0.16100
O850        O  0.02645060  0.19622288  0.25272826    -0.60900
H851        H  0.01269213  0.17791245  0.23412962     0.43100
H852        H  0.88617407  0.28489571  0.30716681     0.43100
C853        C  0.13317868  0.22717574  0.25915622    -0.06000
C854        C  0.15305793  0.19897697  0.23577002    -0.33400
C855        C  0.15946938  0.16052879  0.24915315     0.35900
C856        C  0.14884041  0.14952633  0.28799996    -0.06300
C857        C  0.13174917  0.17823854  0.31299060    -0.33300
C858        C  0.12316799  0.21670019  0.29854920     0.35800
H859        H  0.16183112  0.20571441  0.20549847     0.16100
O860        O  0.17676799  0.13401828  0.22383047    -0.60800
H861        H  0.12392803  0.17047052  0.34329244     0.16100
O862        O  0.10367193  0.24290287  0.32250784    -0.60900
H863        H  0.12498949  0.25820565  0.33603803     0.43100
H864        H  0.15483254  0.12426266  0.20655191     0.43100
C865        C  0.17667522  0.40803375  0.23131359    -0.06000
C866        C  0.19755010  0.43543878  0.20753755    -0.33400
C867        C  0.23067717  0.45629618  0.22258262     0.35900
C868        C  0.24368208  0.45018789  0.26226247    -0.06300
C869        C  0.22415327  0.42123168  0.28524228    -0.33300
C870        C  0.19146301  0.40009349  0.27016936     0.35800
H871        H  0.18770799  0.44145968  0.17732138     0.16100
O872        O  0.24914065  0.48362351  0.19857702    -0.60800
H873        H  0.23343578  0.41575732  0.31575883     0.16100
O874        O  0.17349356  0.37268700  0.29447878    -0.60900
H875        H  0.18718079  0.34728871  0.28898666     0.43100
H876        H  0.23226215  0.50758454  0.19955400     0.43100
C877        C  0.26433261  0.31870563  0.91116138    -0.06000
C878        C  0.23997044  0.29580253  0.93638459    -0.33400
C879        C  0.25502550  0.26253789  0.95721367     0.35900
C880        C  0.29557358  0.25186397  0.95400862    -0.06300
C881        C  0.31929060  0.27364081  0.92738851    -0.33300
C882        C  0.30412006  0.30614598  0.90589755     0.35800
H883        H  0.20913098  0.30391734  0.94041143     0.16100
O884        O  0.23020089  0.24214180  0.98228488    -0.60800
H885        H  0.35040197  0.26623400  0.92399620     0.16100
O886        O  0.32927362  0.32627449  0.88092944    -0.60900
H887        H  0.32663777  0.31281702  0.85485741     0.43100
H888        H  0.21889564  0.22045357  0.96593205     0.43100
C889        C  0.19256275  0.28981733  0.11438287    -0.06000
C890        C  0.21411739  0.26793873  0.14274293    -0.33400
C891        C  0.25269982  0.25526593  0.13470370     0.35900
C892        C  0.26969896  0.26318811  0.09732048    -0.06300
C893        C  0.24939681  0.28790832  0.07022146    -0.33300
C894        C  0.21107436  0.30166205  0.07883406     0.35800
H895        H  0.20090571  0.26054544  0.17116859     0.16100
O896        O  0.27302767  0.23379035  0.16298377    -0.60800
H897        H  0.26202053  0.29421495  0.04127355     0.16100
O898        O  0.19099109  0.32437072  0.05133942    -0.60900
H899        H  0.20051359  0.35183968  0.05578105     0.43100
H900        H  0.29269471  0.25250061  0.17452442     0.43100
C901        C  0.29586256  0.09073357  0.23635741    -0.06000
C902        C  0.27747473  0.12084133  0.21386729    -0.33400
C903        C  0.28848187  0.12845993  0.17481435     0.35900
C904        C  0.32146098  0.10928028  0.15860938    -0.06300
C905        C  0.34325202  0.08247267  0.18250933    -0.33300
C906        C  0.33007392  0.07238329  0.22100244     0.35800
H907        H  0.25196790  0.13633274  0.22542039     0.16100
O908        O  0.26650020  0.15473822  0.15260929    -0.60800
H909        H  0.36927700  0.06799978  0.17062372     0.16100
O910        O  0.34881200  0.04259941  0.24174399    -0.60900
H911        H  0.37017569  0.05593864  0.25716633     0.43100
H912        H  0.24392505  0.13907316  0.14177328     0.43100
C913        C  0.48844554  0.25329148  0.21072646    -0.06000
C914        C  0.45641484  0.27430529  0.19394461    -0.33400
C915        C  0.43462919  0.25928622  0.16153060     0.35900
C916        C  0.44481666  0.22245835  0.14430027    -0.06300
C917        C  0.47528880  0.20021421  0.16269600    -0.33300
C918        C  0.49677492  0.21512273  0.19562369     0.35800
H919        H  0.44893858  0.30337319  0.20516935     0.16100
O920        O  0.40334687  0.28116964  0.14699889    -0.60800
H921        H  0.48335465  0.17157199  0.15084842     0.16100
O922        O  0.52770910  0.19321203  0.21079115    -0.60900
H923        H  0.51624218  0.17792191  0.23327772     0.43100
H924        H  0.41540107  0.30104630  0.12882784     0.43100
C925        C  0.85488395  0.54319861  0.72995042    -0.06000
C926        C  0.82612815  0.52600329  0.75501951    -0.33400
C927        C  0.79286656  0.50576738  0.73921279     0.35900
C928        C  0.78774117  0.50226468  0.69753045    -0.06300
C929        C  0.81638342  0.51993054  0.67271342    -0.33300
C930        C  0.84946809  0.53989617  0.68835414     0.35800
H931        H  0.82932765  0.52835034  0.78704328     0.16100
O932        O  0.76633308  0.48859259  0.76489740    -0.60800
H933        H  0.81410174  0.51710826  0.64065501     0.16100
O934        O  0.87748484  0.55423488  0.66246340    -0.60900
H935        H  0.86681034  0.57991396  0.65267296     0.43100
H936        H  0.74573387  0.50907175  0.76929148     0.43100
C937        C  0.75935005  0.31741802  0.55046618    -0.06000
C938        C  0.80045878  0.31009962  0.55389502    -0.33400
C939        C  0.81870431  0.27932860  0.53302994     0.35900
C940        C  0.79596846  0.25454569  0.50782365    -0.06300
C941        C  0.75443555  0.26006099  0.50652156    -0.33300
C942        C  0.73613182  0.29081735  0.52778512     0.35800
H943        H  0.81912682  0.32906210  0.57208170     0.16100
O944        O  0.85903512  0.27443272  0.53699432    -0.60800
H945        H  0.73607071  0.24140783  0.48773131     0.16100
O946        O  0.69565537  0.29496203  0.52541534    -0.60900
H947        H  0.68502735  0.27766401  0.54685224     0.43100
H948        H  0.87105777  0.29474394  0.51922419     0.43100
C949        C  0.80078449  0.20009968  0.00802986    -0.06000
C950        C  0.75940346  0.19360187  0.00589824    -0.33400
C951        C  0.74157266  0.16070119  0.02464437     0.35900
C952        C  0.76498839  0.13339312  0.04648423    -0.06300
C953        C  0.80618155  0.14038402  0.04926813    -0.33300
C954        C  0.82402398  0.17298356  0.03042556     0.35800
H955        H  0.74079368  0.21322890  0.98824429     0.16100
O956        O  0.70135463  0.15522224  0.02057814    -0.60800
H957        H  0.82510544  0.12005757  0.06575469     0.16100
O958        O  0.86457914  0.17679914  0.03270898    -0.60900
H959        H  0.86981958  0.19079705  0.05810596     0.43100
H960        H  0.68943506  0.16975557  0.04311796     0.43100
C961        C  0.96905103  0.28691202  0.99550820    -0.06000
C962        C  0.98395824  0.32512045  0.00385127    -0.33400
C963        C  0.00915371  0.33203171  0.03653557     0.35900
C964        C  0.01989143  0.30058686  0.06211388    -0.06300
C965        C  0.00543301  0.26230098  0.05367420    -0.33300
C966        C  0.98035706  0.25530922  0.02081696     0.35800
H967        H  0.97554580  0.35017729  0.98532043     0.16100
O968        O  0.02120260  0.37006780  0.04443871    -0.60800
H969        H  0.01344756  0.23755437  0.07280407     0.16100
O970        O  0.96665639  0.21757818  0.01427252    -0.60900
H971        H  0.94173667  0.21548418  0.02974458     0.43100
H972        H  0.04400957  0.37499918  0.02650388     0.43100
C973        C  0.81993104  0.34162124  0.80414218    -0.06000
C974        C  0.78950119  0.31862412  0.78750102    -0.33400
C975        C  0.77591261  0.32593739  0.74882452     0.35900
C976        C  0.79145245  0.35808202  0.72667167    -0.06300
C977        C  0.82374650  0.37953887  0.74231190    -0.33300
C978        C  0.83829609  0.37116782  0.78077353     0.35800
H979        H  0.77610754  0.29492845  0.80467747     0.16100
O980        O  0.74550203  0.30309918  0.73390602    -0.60800
H981        H  0.83576511  0.40462339  0.72602958     0.16100
O982        O  0.86909512  0.39321097  0.79598671    -0.60900
H983        H  0.85668496  0.41794972  0.80577563     0.43100
H984        H  0.75825867  0.28483350  0.71483637     0.43100
C985        C  0.98520055  0.19873008  0.75304955    -0.06000
C986        C  0.99141598  0.23862266  0.76379052    -0.33400
C987        C  0.97214334  0.25530550  0.79688610     0.35900
C988        C  0.94529091  0.23237626  0.81964254    -0.06300
C989        C  0.93670497  0.19362143  0.80663096    -0.33300
C990        C  0.95630429  0.17683440  0.77410272     0.35800
H991        H  0.01327606  0.25631850  0.74812251     0.16100
O992        O  0.98042870  0.29378147  0.80697026    -0.60800
H993        H  0.91521968  0.17551359  0.82234146     0.16100
O994        O  0.94712521  0.13868952  0.76339234    -0.60900
H995        H  0.96083805  0.12154460  0.78327173     0.43100
H996        H  0.00432497  0.29230738  0.82438140     0.43100
C997        C  0.48942629  0.19582199  0.71134738    -0.06000
C998        C  0.46213416  0.17227358  0.69020186    -0.33400
C999        C  0.44161088  0.18678271  0.65673080     0.35900
C1000       C  0.44769591  0.22612079  0.64303683    -0.06300
C1001       C  0.47411561  0.25031914  0.66486925    -0.33300
C1002       C  0.49484673  0.23556857  0.69857395     0.35800
H1003       H  0.45758232  0.14158362  0.69873498     0.16100
O1004       O  0.41688597  0.16127957  0.63667841    -0.60800
H1005       H  0.47936578  0.28062094  0.65539002     0.16100
O1006       O  0.52208989  0.25962604  0.71710392    -0.60900
H1007       H  0.50753459  0.27185263  0.73945814     0.43100
H1008       H  0.39113057  0.16256724  0.65083660     0.43100
C1009       C  0.46907802  0.17176447  0.97055899    -0.06000
C1010       C  0.49106283  0.13638877  0.96803123    -0.33400
C1011       C  0.51732547  0.12965929  0.93656144     0.35900
C1012       C  0.52149304  0.15811821  0.90592695    -0.06300
C1013       C  0.50064055  0.19417131  0.90926032    -0.33300
C1014       C  0.47510580  0.20129481  0.94136148     0.35800
H1015       H  0.48744325  0.11334409  0.99034237     0.16100
O1016       O  0.53732225  0.09432140  0.93529283    -0.60800
H1017       H  0.50368411  0.21692521  0.88657260     0.16100
O1018       O  0.45454991  0.23631223  0.94254226    -0.60900
H1019       H  0.47264675  0.25518931  0.95617954     0.43100
H1020       H  0.56230874  0.09891340  0.95045432     0.43100
C1021       C  0.69368280  0.16504913  0.85107964    -0.06000
C1022       C  0.71541552  0.14764733  0.88249816    -0.33400
C1023       C  0.75434694  0.16047624  0.89103145     0.35900
C1024       C  0.77198220  0.19008383  0.86710250    -0.06300
C1025       C  0.75155211  0.20383944  0.83327745    -0.33300
C1026       C  0.71245885  0.19259840  0.82592543     0.35800
H1027       H  0.70154642  0.12560406  0.90148991     0.16100
O1028       O  0.77321202  0.14675567  0.92470195    -0.60800
H1029       H  0.76483288  0.22616505  0.81423844     0.16100
O1030       O  0.69286132  0.20901974  0.79399992    -0.60900
H1031       H  0.68271344  0.23476414  0.80361770     0.43100
H1032       H  0.78681486  0.12212970  0.91644196     0.43100
C1033       C  0.62218136  0.22850096  0.70807364    -0.06000
C1034       C  0.62368853  0.26214488  0.73265642    -0.33400
C1035       C  0.63078326  0.29968448  0.71745418     0.35900
C1036       C  0.63761326  0.30481204  0.67656422    -0.06300
C1037       C  0.63467504  0.27149764  0.65127116    -0.33300
C1038       C  0.62660266  0.23347230  0.66681378     0.35800
H1039       H  0.61894124  0.25973486  0.76444563     0.16100
O1040       O  0.63241893  0.33087785  0.74343475    -0.60800
H1041       H  0.63946401  0.27474594  0.61955225     0.16100
O1042       O  0.62389169  0.20167794  0.64170955    -0.60900
H1043       H  0.65098300  0.19013357  0.64129546     0.43100
H1044       H  0.60439914  0.33930696  0.74679761     0.43100
C1045       C  0.67340745  0.04469893  0.73861604    -0.06000
C1046       C  0.68861667  0.05627178  0.70129960    -0.33400
C1047       C  0.72081006  0.03658507  0.68404857     0.35900
C1048       C  0.73906627  0.00443576  0.70392822    -0.06300
C1049       C  0.72559118  0.99426294  0.74231774    -0.33300
C1050       C  0.69330708  0.01415288  0.75972082     0.35800
H1051       H  0.67507325  0.08044772  0.68476016     0.16100
O1052       O  0.73410075  0.04899292  0.64748359    -0.60800
H1053       H  0.73878829  0.96944158  0.75816519     0.16100
O1054       O  0.68059281  0.00226679  0.79661823    -0.60900
H1055       H  0.69549022  0.01908017  0.81572974     0.43100
H1056       H  0.71486208  0.03800792  0.62789003     0.43100
C1057       C  0.08176936  0.72302452  0.14263146    -0.06000
C1058       C  0.05274957  0.69996642  0.16202577    -0.33400
C1059       C  0.03155552  0.71483365  0.19472959     0.35900
C1060       C  0.03870595  0.75376620  0.20859631    -0.06300
C1061       C  0.06924210  0.77583466  0.19070415    -0.33300
C1062       C  0.09084077  0.76083597  0.15857573     0.35800
H1063       H  0.04553839  0.67065035  0.15112161     0.16100
O1064       O  0.00192059  0.69199591  0.21086071    -0.60800
H1065       H  0.07560863  0.80564773  0.20078702     0.16100
O1066       O  0.11983125  0.78432524  0.14217720    -0.60900
H1067       H  0.14456228  0.77739787  0.15689618     0.43100
H1068       H  0.01456864  0.67784856  0.23358711     0.43100
C1069       C  0.02608991  0.92840076  0.28712187    -0.06000
C1070       C  0.05288386  0.93587814  0.25612387    -0.33400
C1071       C  0.08575983  0.96106488  0.26173111     0.35900
C1072       C  0.09274856  0.97929788  0.29904580    -0.06300
C1073       C  0.06482902  0.97350883  0.32932250    -0.33300
C1074       C  0.03185638  0.94858117  0.32368352     0.35800
H1075       H  0.04903631  0.92128902  0.22770385     0.16100
O1076       O  0.11114507  0.96713611  0.23049871    -0.60800
H1077       H  0.06905628  0.98754719  0.35798456     0.16100
O1078       O  0.00596669  0.94355905  0.35468804    -0.60900
H1079       H  0.98491648  0.96366632  0.35022662     0.43100
H1080       H  0.10284691  0.99275278  0.21843009     0.43100
C1081       C  0.85307883  0.90590306  0.23072047    -0.06000
C1082       C  0.83021108  0.93056599  0.25526510    -0.33400
C1083       C  0.79699190  0.95130116  0.24009190     0.35900
C1084       C  0.78615141  0.94802463  0.19947115    -0.06300
C1085       C  0.80764394  0.92164235  0.17568476    -0.33300
C1086       C  0.84057619  0.90093664  0.19069407     0.35800
H1087       H  0.83842495  0.93437348  0.28626039     0.16100
O1088       O  0.77687569  0.97636923  0.26477059    -0.60800
H1089       H  0.79995671  0.91815307  0.14450180     0.16100
O1090       O  0.86057939  0.87632639  0.16543784    -0.60900
H1091       H  0.88042481  0.89351074  0.15197617     0.43100
H1092       H  0.75777365  0.95921682  0.27926066     0.43100
C1093       C  0.75975083  0.82323269  0.54659774    -0.06000
C1094       C  0.71982318  0.81205018  0.55227875    -0.28600
C1095       C  0.70347358  0.77844710  0.53385585     0.35900
C1096       C  0.72674401  0.75481251  0.50840533    -0.06300
C1097       C  0.76710765  0.76504783  0.50377375    -0.33300
C1098       C  0.78363479  0.79857924  0.52269355     0.35800
H1099       H  0.70071081  0.82969882  0.57095048     0.16100
O1100       O  0.66409794  0.76991092  0.53998260    -0.60800
H1101       H  0.78570754  0.74788316  0.48415655     0.16100
O1102       O  0.82301444  0.80722160  0.51688042    -0.60900
H1103       H  0.83727975  0.79393609  0.53921156     0.43100
H1104       H  0.66371336  0.75242538  0.56388530     0.43100
C1105       C  0.75770200  0.75739740  0.36399526    -0.06000
C1106       C  0.77397591  0.78956620  0.38500409    -0.33400
C1107       C  0.81235197  0.80345402  0.37616022     0.35900
C1108       C  0.83516342  0.78388770  0.34733844    -0.06300
C1109       C  0.81828078  0.75301336  0.32558551    -0.33300
C1110       C  0.77950791  0.74058127  0.33264064     0.35800
H1111       H  0.75811708  0.80220015  0.40984593     0.16100
O1112       O  0.82844717  0.83387141  0.39789643    -0.60800
H1113       H  0.83552599  0.73821666  0.30320545     0.16100
O1114       O  0.76344129  0.71098754  0.30958919    -0.60900
H1115       H  0.77764674  0.68638177  0.31750979     0.43100
H1116       H  0.81809337  0.85843578  0.38522119     0.43100
C1117       C  0.58238324  0.72622703  0.31805798    -0.06000
C1118       C  0.58730247  0.76643136  0.30784605    -0.33400
C1119       C  0.56778363  0.78314717  0.27487964     0.35900
C1120       C  0.54205481  0.75985249  0.25107822    -0.06300
C1121       C  0.53926624  0.71901259  0.25956424    -0.33300
C1122       C  0.55910373  0.70220728  0.29261343     0.35800
H1123       H  0.60570096  0.78558121  0.32610814     0.16100
O1124       O  0.57260318  0.82292295  0.26763571    -0.60800
H1125       H  0.52000481  0.70027700  0.24177110     0.16100
O1126       O  0.55536957  0.66231017  0.29964733    -0.60900
H1127       H  0.53244415  0.65966388  0.31786541     0.43100
H1128       H  0.59463774  0.82476471  0.24821795     0.43100
C1129       C  0.68728682  0.55964222  0.47940560    -0.06000
C1130       C  0.72633183  0.54796004  0.48911631    -0.33400
C1131       C  0.73372670  0.51413184  0.51260952     0.35900
C1132       C  0.70175120  0.49164269  0.52762012    -0.06300
C1133       C  0.66265624  0.50326321  0.51721450    -0.33300
C1134       C  0.65534953  0.53680149  0.49352715     0.35800
H1135       H  0.75132550  0.56505121  0.47817669     0.16100
O1136       O  0.77227268  0.50393331  0.52122645    -0.60800
H1137       H  0.63727509  0.48683949  0.52822880     0.16100
O1138       O  0.61681303  0.54763802  0.48544450    -0.60900
H1139       H  0.60957562  0.56625001  0.50695045     0.43100
H1140       H  0.77993008  0.48519744  0.49997720     0.43100
C1141       C  0.74097883  0.44736867  0.20087083    -0.06000
C1142       C  0.72958487  0.45406787  0.24060346    -0.33400
C1143       C  0.69617041  0.43481895  0.25729441     0.35900
C1144       C  0.67315964  0.40809334  0.23432419    -0.06300
C1145       C  0.68597038  0.40004904  0.19535372    -0.33300
C1146       C  0.71919964  0.41903828  0.17884009     0.35800
H1147       H  0.74545506  0.47575139  0.25832653     0.16100
O1148       O  0.68634369  0.44259137  0.29601014    -0.60800
H1149       H  0.66978965  0.37912693  0.17698838     0.16100
O1150       O  0.72921501  0.41043825  0.14038372    -0.60900
H1151       H  0.75062363  0.39036566  0.14264244     0.43100
H1152       H  0.66971448  0.46681033  0.29473469     0.43100
C1153       C  0.83109665  0.39613123  0.97551056    -0.06000
C1154       C  0.79608416  0.39830565  0.99833190    -0.33400
C1155       C  0.78854377  0.43077942  0.02328543     0.35900
C1156       C  0.81625115  0.46197454  0.02624002    -0.06300
C1157       C  0.85050454  0.46049531  0.00237688    -0.33300
C1158       C  0.85796308  0.42829124  0.97724848     0.35800
H1159       H  0.77458796  0.37436973  0.99740895     0.16100
O1160       O  0.75481230  0.43076361  0.04589125    -0.60800
H1161       H  0.87227114  0.48418581  0.00380882     0.16100
O1162       O  0.89205076  0.42846524  0.95509063    -0.60900
H1163       H  0.91240762  0.41545017  0.97219130     0.43100
H1164       H  0.76302236  0.41880606  0.07168801     0.43100
C1165       C  0.93470596  0.48085331  0.16106672    -0.06000
C1166       C  0.93845647  0.45956617  0.19726334    -0.33400
C1167       C  0.97151111  0.43527824  0.20529973     0.35900
C1168       C  0.00175451  0.43144347  0.17686346    -0.06300
C1169       C  0.99852775  0.45355612  0.14115285    -0.33300
C1170       C  0.96560786  0.47790262  0.13314559     0.35800
H1171       H  0.91533358  0.46127295  0.21945889     0.16100
O1172       O  0.97262701  0.41366717  0.24000253    -0.60800
H1173       H  0.02133610  0.45131084  0.11866652     0.16100
O1174       O  0.96376120  0.49797426  0.09753146    -0.60900
H1175       H  0.95018750  0.47962337  0.07885634     0.43100
H1176       H  0.98611856  0.43105985  0.25962459     0.43100
C1177       C  0.89382459  0.73008277  0.19477274    -0.06000
C1178       C  0.91780805  0.71295787  0.16545971    -0.33400
C1179       C  0.90990920  0.67434766  0.15190158     0.35900
C1180       C  0.87899373  0.65200080  0.16917456    -0.06300
C1181       C  0.85311332  0.67041180  0.19562626    -0.33300
C1182       C  0.85953415  0.70955221  0.20725764     0.35800
H1183       H  0.94417893  0.72827739  0.15515324     0.16100
O1184       O  0.93407316  0.65781174  0.12385656    -0.60800
H1185       H  0.82756285  0.65449217  0.20706634     0.16100
O1186       O  0.83301241  0.72701938  0.23235537    -0.60900
H1187       H  0.81165656  0.73761195  0.21480730     0.43100
H1188       H  0.92295200  0.66669888  0.09785608     0.43100
C1189       C  0.73633852  0.57979810  0.23657974    -0.06000
C1190       C  0.69914224  0.59822741  0.23721929    -0.33400
C1191       C  0.68251927  0.61003443  0.27362814     0.35900
C1192       C  0.70321813  0.60313170  0.31002433    -0.06300
C1193       C  0.73907168  0.58245051  0.30920507    -0.33300
C1194       C  0.75564369  0.57094291  0.27321248     0.35800
H1195       H  0.68385076  0.60506809  0.20952583     0.16100
O1196       O  0.64730396  0.63042658  0.27295642    -0.60800
H1197       H  0.75500046  0.57584591  0.33661942     0.16100
O1198       O  0.79088705  0.55057915  0.27431263    -0.60900
H1199       H  0.81166130  0.57087153  0.27946256     0.43100
H1200       H  0.62630789  0.60974922  0.27303021     0.43100
C1201       C  0.72874812  0.69929483  0.00590900    -0.06000
C1202       C  0.76864661  0.68824596  0.99988870    -0.33400
C1203       C  0.78573393  0.65572726  0.02036568     0.35900
C1204       C  0.76316177  0.63350152  0.04806590    -0.06300
C1205       C  0.72370463  0.64545169  0.05486774    -0.33300
C1206       C  0.70658422  0.67760038  0.03426606     0.35800
H1207       H  0.78631568  0.70380072  0.97790577     0.16100
O1208       O  0.82449316  0.64600226  0.01281590    -0.60800
H1209       H  0.70545960  0.62936659  0.07596956     0.16100
O1210       O  0.66751214  0.68658951  0.04123248    -0.60900
H1211       H  0.66786983  0.70334595  0.06539622     0.43100
H1212       H  0.82324064  0.62753007  0.98996466     0.43100
C1213       C  0.53869267  0.70172476  0.74937043    -0.06000
C1214       C  0.56849641  0.67958625  0.76860019    -0.33400
C1215       C  0.58882660  0.69422529  0.80194019     0.35900
C1216       C  0.57948320  0.73197917  0.81760941    -0.06300
C1217       C  0.55121264  0.75519737  0.79703207    -0.33300
C1218       C  0.53101457  0.74048966  0.76323573     0.35800
H1219       H  0.57509555  0.64981394  0.75872198     0.16100
O1220       O  0.61684026  0.67037385  0.81973274    -0.60800
H1221       H  0.54386313  0.78447128  0.80776329     0.16100
O1222       O  0.50179393  0.76321973  0.74597237    -0.60900
H1223       H  0.51548087  0.77917544  0.72527550     0.43100
H1224       H  0.64230179  0.67750218  0.80674588     0.43100
C1225       C  0.28858677  0.50496568  0.76021754    -0.06000
C1226       C  0.30387967  0.49492823  0.72266711    -0.33400
C1227       C  0.33708196  0.51488201  0.70660810     0.35900
C1228       C  0.35595489  0.54573573  0.72804236    -0.06300
C1229       C  0.33983081  0.55633332  0.76507502    -0.33300
C1230       C  0.30683440  0.53642678  0.78105599     0.35800
H1231       H  0.29126923  0.47018419  0.70644081     0.16100
O1232       O  0.35164774  0.50277171  0.67066600    -0.60800
H1233       H  0.35311060  0.58007755  0.78223032     0.16100
O1234       O  0.29344135  0.54734730  0.81783848    -0.60900
H1235       H  0.27150950  0.56626394  0.81244234     0.43100
H1236       H  0.33683488  0.51847627  0.65039425     0.43100
C1237       C  0.52847909  0.52802011  0.67317969    -0.06000
C1238       C  0.53168161  0.50717543  0.63703613    -0.33400
C1239       C  0.56353624  0.48152447  0.62985330     0.35900
C1240       C  0.59335281  0.47607981  0.65900680    -0.06300
C1241       C  0.58988524  0.49647093  0.69539312    -0.33300
C1242       C  0.55778863  0.52194444  0.70267887     0.35800
H1243       H  0.50956950  0.51116666  0.61373148     0.16100
O1244       O  0.56546853  0.46256947  0.59390572    -0.60800
H1245       H  0.61231156  0.49283211  0.71843793     0.16100
O1246       O  0.55656311  0.54219807  0.73791376    -0.60900
H1247       H  0.54327393  0.52394722  0.75689950     0.43100
H1248       H  0.57834591  0.48181962  0.57560269     0.43100
C1249       C  0.55331998  0.67463613  0.49080096    -0.06000
C1250       C  0.54868940  0.70450312  0.51916387    -0.33400
C1251       C  0.52415040  0.69866093  0.55231548     0.35900
C1252       C  0.50321015  0.66246177  0.55746173    -0.06300
C1253       C  0.50616215  0.63355961  0.52784521    -0.33300
C1254       C  0.53073886  0.63934019  0.49485945     0.35800
H1255       H  0.56543968  0.73186556  0.51662345     0.16100
O1256       O  0.52095466  0.72868064  0.57945523    -0.60800
H1257       H  0.49017099  0.60578489  0.53070452     0.16100
O1258       O  0.53322745  0.60958784  0.46733014    -0.60900
H1259       H  0.51501525  0.61760050  0.44536570     0.43100
H1260       H  0.54444771  0.72577824  0.59729503     0.43100
C1261       C  0.23923280  0.00496619  0.76175468    -0.06000
C1262       C  0.21955508  0.03347684  0.78453087    -0.33400
C1263       C  0.18660033  0.05418336  0.76950647     0.35900
C1264       C  0.17205869  0.04689393  0.73051695    -0.06300
C1265       C  0.19298442  0.01970560  0.70686995    -0.33300
C1266       C  0.22628207  0.99901913  0.72204313     0.35800
H1267       H  0.22885767  0.03884611  0.81498995     0.16100
O1268       O  0.16869398  0.08130983  0.79372208    -0.60800
H1269       H  0.18306218  0.01377471  0.67672378     0.16100
O1270       O  0.24401104  0.97107729  0.69863884    -0.60900
H1271       H  0.26642967  0.98507905  0.68563077     0.43100
H1272       H  0.14984696  0.06572133  0.81017363     0.43100
C1273       C  0.31357852  0.99110910  0.93818854    -0.06000
C1274       C  0.34641567  0.99169596  0.96445881    -0.33400
C1275       C  0.35443022  0.02446609  0.98881129     0.35900
C1276       C  0.32946313  0.05805516  0.98746983    -0.06300
C1277       C  0.29574721  0.05685239  0.96216001    -0.33300
C1278       C  0.28778123  0.02394223  0.93774656     0.35800
H1279       H  0.36672887  0.96681991  0.96551977     0.16100
O1280       O  0.38704436  0.02323725  0.01354030    -0.60800
H1281       H  0.27569665  0.08189529  0.96062860     0.16100
O1282       O  0.25556251  0.02498304  0.91249337    -0.60900
H1283       H  0.26589122  0.03557796  0.88694748     0.43100
H1284       H  0.40949877  0.03283735  0.99708094     0.43100
C1285       C  0.43047497  0.97798817  0.80932777    -0.06000
C1286       C  0.43442051  0.99894734  0.77307831    -0.33400
C1287       C  0.46768322  0.02283054  0.76545981     0.35900
C1288       C  0.49817450  0.02603163  0.79414079    -0.06300
C1289       C  0.49431366  0.00500640  0.83035628    -0.33300
C1290       C  0.46093213  0.98135372  0.83811808     0.35800
H1291       H  0.41148907  0.99699984  0.75035009     0.16100
O1292       O  0.46942961  0.04368815  0.73032569    -0.60800
H1293       H  0.51710661  0.00733116  0.85320574     0.16100
O1294       O  0.45833408  0.96212388  0.87412534    -0.60900
H1295       H  0.44476250  0.98101970  0.89197011     0.43100
H1296       H  0.45694267  0.06963102  0.73602381     0.43100
C1297       C  0.38731303  0.80785075  0.79023521    -0.06000
C1298       C  0.39174999  0.80458111  0.74914032    -0.33400
C1299       C  0.39970614  0.76837383  0.73163210     0.35900
C1300       C  0.40439606  0.73357287  0.75529532    -0.06300
C1301       C  0.40182022  0.73688210  0.79680759    -0.33300
C1302       C  0.39297524  0.77364967  0.81436648     0.35800
H1303       H  0.38791615  0.83017782  0.72983326     0.16100
O1304       O  0.40424016  0.76801087  0.69104488    -0.60800
H1305       H  0.40599426  0.71095186  0.81554126     0.16100
O1306       O  0.38923014  0.77552968  0.85493183    -0.60900
H1307       H  0.41606539  0.78274017  0.86498172     0.43100
H1308       H  0.37691172  0.76934018  0.67981183     0.43100
C1309       C  0.22553338  0.75120956  0.95017816    -0.06000
C1310       C  0.26682430  0.75789944  0.95274518    -0.33400
C1311       C  0.28471790  0.79024828  0.93324384     0.35900
C1312       C  0.26139822  0.81674556  0.91033762    -0.06300
C1313       C  0.22065306  0.80819827  0.90536269    -0.33300
C1314       C  0.20272423  0.77611601  0.92502223     0.35800
H1315       H  0.28521238  0.73916532  0.97159097     0.16100
O1316       O  0.32500259  0.79554287  0.93688216    -0.60800
H1317       H  0.20204545  0.82717245  0.88697912     0.16100
O1318       O  0.16268831  0.76987076  0.91985678    -0.60900
H1319       H  0.14951429  0.78971163  0.93699187     0.43100
H1320       H  0.32881453  0.81019255  0.96213703     0.43100
C1321       C  0.23215590  0.69942127  0.45654959    -0.06000
C1322       C  0.21106512  0.68149820  0.42530070    -0.33400
C1323       C  0.22740234  0.65017358  0.40363958     0.35900
C1324       C  0.26542158  0.63478673  0.41367956    -0.06300
C1325       C  0.28726005  0.65381518  0.44393740    -0.33300
C1326       C  0.27127155  0.68608578  0.46483502     0.35800
H1327       H  0.18118592  0.69125059  0.41807366     0.16100
O1328       O  0.20517239  0.63427232  0.37326867    -0.60800
H1329       H  0.31663537  0.64325467  0.45202175     0.16100
O1330       O  0.29319907  0.70240462  0.49520366    -0.60900
H1331       H  0.31049005  0.72246180  0.48225152     0.43100
H1332       H  0.21279950  0.64954828  0.34916967     0.43100
C1333       C  0.18999977  0.88908206  0.48385310    -0.06000
C1334       C  0.22884396  0.89908267  0.47211298    -0.33400
C1335       C  0.23615114  0.93151347  0.44674500     0.35900
C1336       C  0.20430413  0.95484814  0.43247884    -0.06300
C1337       C  0.16537509  0.94461463  0.44436312    -0.33300
C1338       C  0.15814145  0.91228049  0.46973607     0.35800
H1339       H  0.25381053  0.88163693  0.48272250     0.16100
O1340       O  0.27454799  0.93996554  0.43620868    -0.60800
H1341       H  0.14004404  0.96135095  0.43346340     0.16100
O1342       O  0.11963336  0.90228226  0.47861081    -0.60900
H1343       H  0.11238289  0.91934262  0.50137874     0.43100
H1344       H  0.27949654  0.92383714  0.41211488     0.43100
C1345       C  0.05654784  0.77783128  0.46670819    -0.06000
C1346       C  0.03547358  0.81367372  0.46268539    -0.33400
C1347       C  0.01055063  0.82098501  0.42987004     0.35900
C1348       C  0.00606675  0.79221771  0.39987325    -0.06300
C1349       C  0.02618478  0.75584740  0.40447116    -0.33300
C1350       C  0.05094124  0.74843086  0.43754076     0.35800
H1351       H  0.03891148  0.83674064  0.48476077     0.16100
O1352       O  0.99139227  0.85675609  0.42721808    -0.60800
H1353       H  0.02307154  0.73302546  0.38210526     0.16100
O1354       O  0.07101407  0.71314957  0.43983940    -0.60900
H1355       H  0.05239834  0.69446152  0.45298208     0.43100
H1356       H  0.01044027  0.87484482  0.41379690     0.43100
C1357       C  0.20522529  0.83881676  0.65763374    -0.06000
C1358       C  0.18274433  0.86198459  0.68385861    -0.33400
C1359       C  0.19827309  0.87275394  0.72132587     0.35900
C1360       C  0.23614223  0.85909919  0.73335583    -0.06300
C1361       C  0.25668930  0.83312081  0.70825318    -0.33300
C1362       C  0.24208306  0.82378678  0.67059689     0.35800
H1363       H  0.15389266  0.87308375  0.67464492     0.16100
O1364       O  0.17691153  0.89767148  0.74510368    -0.60800
H1365       H  0.28557526  0.82157396  0.71685771     0.16100
O1366       O  0.26408213  0.79945518  0.64680881    -0.60900
H1367       H  0.28371947  0.81704521  0.63364845     0.43100
H1368       H  0.18366081  0.92479075  0.73584398     0.43100
C1369       C  0.25352421  0.68801690  0.60101540    -0.06000
C1370       C  0.27319353  0.70120938  0.63535625    -0.33400
C1371       C  0.31206347  0.68955464  0.64349765     0.35900
C1372       C  0.33199568  0.66450682  0.61697857    -0.06300
C1373       C  0.31077144  0.64732775  0.58538762    -0.33300
C1374       C  0.27140812  0.65867978  0.57750999     0.35800
H1375       H  0.25922030  0.72262201  0.65461305     0.16100
O1376       O  0.33037539  0.70337322  0.67718889    -0.60800
H1377       H  0.32518772  0.62633173  0.56597669     0.16100
O1378       O  0.25217982  0.64381793  0.54470306    -0.60900
H1379       H  0.23966734  0.61880971  0.55395357     0.43100
H1380       H  0.32414173  0.68353244  0.69819323     0.43100
C1381       C  0.08094171  0.72463465  0.64249793    -0.06000
C1382       C  0.05702438  0.74967661  0.66552248    -0.33400
C1383       C  0.03732771  0.73539702  0.69952592     0.35900
C1384       C  0.04049980  0.69506734  0.71074289    -0.06300
C1385       C  0.06662224  0.67088117  0.68935254    -0.33300
C1386       C  0.08682546  0.68521658  0.65593035     0.35800
H1387       H  0.05293414  0.78037968  0.65682529     0.16100
O1388       O  0.01327017  0.76069284  0.72003736    -0.60800
H1389       H  0.07013807  0.63992793  0.69741778     0.16100
O1390       O  0.11097286  0.65963933  0.63577674    -0.60900
H1391       H  0.13748248  0.66228809  0.64863262     0.43100
H1392       H  0.03123895  0.77482450  0.73873820     0.43100
loop_ 
_geom_bond_atom_site_label_1 
_geom_bond_atom_site_label_2 
_geom_bond_distance 
_geom_bond_site_symmetry_2 
_ccdc_geom_bond_type 
O1           C16   1.258       .  A
O1           Al9   1.867       .  S
C2           O12   1.257       .  A
C2            O3   1.269       .  A
C2         C1345   1.490       .  S
O3           Al5   1.941       .  S
O4            C6   1.262       .  A
O4           Al5   1.904       .  S
Al5          O13   1.882       .  S
Al5          O15   1.947       .  S
Al5          O14   1.781       .  S
C6           O19   1.264       .  A
C6         C1321   1.495       .  S
O7           C17   1.264       .  A
O7           Al9   1.885       .  S
O8           C21   1.253       .  A
O8          Al18   1.892       .  S
Al9          O22   1.920       .  S
Al9          O19   1.940       .  S
Al9          O14   1.776       .  S
O10          C17   1.274       .  A
O10         Al18   1.951       .  S
O11          C20   1.266       .  A
O11         Al18   1.933       .  S
O12         Al18   1.872       .  S
O13          C20   1.257       .  A
O14         Al18   1.785       .  S
O15          C16   1.269       .  A
C16        C1369   1.467       .  S
C17        C1333   1.485       .  S
C20        C1381   1.495       .  S
C21          O22   1.262       .  A
C21        C1357   1.477       .  S
O23          C38   1.259       .  A
O23         Al31   1.857       .  S
C24          O34   1.257       .  A
C24          O25   1.273       .  A
C24        C1273   1.493       .  S
O25         Al27   1.959       .  S
O26          C28   1.258       .  A
O26         Al27   1.891       .  S
Al27         O35   1.880       .  S
Al27         O37   1.973       .  S
Al27         O36   1.773       .  S
C28          O41   1.265       .  A
C28        C1261   1.495   1_565  S
O29          C39   1.263       .  A
O29         Al31   1.875       .  S
O30          C43   1.253       .  A
O30         Al40   1.886       .  S
Al31         O44   1.931       .  S
Al31         O41   1.956       .  S
Al31         O36   1.774       .  S
O32          C39   1.277       .  A
O32         Al40   1.963       .  S
O33          C42   1.267       .  A
O33         Al40   1.939       .  S
O34         Al40   1.868       .  S
O35          C42   1.257       .  A
O36         Al40   1.782       .  S
O37          C38   1.276       .  A
C38        C1360   1.483       .  S
C39        C1285   1.488       .  S
C42        C1312   1.495       .  S
C43          O44   1.266       .  A
C43        C1297   1.483       .  S
O45          C60   1.246       .  A
O45         Al53   1.842       .  S
C46          O56   1.257       .  A
C46          O47   1.277       .  A
C46        C1237   1.492       .  S
O47         Al49   1.972       .  S
O48          C50   1.262       .  A
O48         Al49   1.893       .  S
Al49         O57   1.902       .  S
Al49         O59   2.001       .  S
Al49         O58   1.776       .  S
C50          O63   1.270       .  A
C50        C1213   1.494       .  S
O51          C61   1.259       .  A
O51         Al53   1.871       .  S
O52          C65   1.251       .  A
O52         Al62   1.870       .  S
Al53         O66   1.935       .  S
Al53         O63   1.964       .  S
Al53         O58   1.763       .  S
O54          C61   1.275       .  A
O54         Al62   1.963       .  S
O55          C64   1.271       .  A
O55         Al62   1.952       .  S
O56         Al62   1.861       .  S
O57          C64   1.264       .  A
O58         Al62   1.776       .  S
O59          C60   1.275       .  A
C60        C1300   1.488       .  S
C61        C1252   1.490       .  S
C64        C1228   1.504       .  S
C65          O66   1.267       .  A
C65        C1372   1.466       .  S
O67          C82   1.251       .  A
O67         Al75   1.857       .  S
C68          O78   1.257       .  A
C68          O69   1.276       .  A
C68        C1156   1.495       .  S
O69         Al71   1.973       .  S
O70          C72   1.261       .  A
O70         Al71   1.895       .  S
Al71         O79   1.900       .  S
Al71         O81   1.991       .  S
Al71         O80   1.777       .  S
C72          O85   1.272       .  A
C72        C1141   1.503       .  S
O73          C83   1.261       .  A
O73         Al75   1.881       .  S
O74          C87   1.252       .  A
O74         Al84   1.871       .  S
Al75         O88   1.944       .  S
Al75         O85   1.976       .  S
Al75         O80   1.771       .  S
O76          C83   1.275       .  A
O76         Al84   1.964       .  S
O77          C86   1.271       .  A
O77         Al84   1.955       .  S
O78         Al84   1.867       .  S
O79          C86   1.263       .  A
O80         Al84   1.783       .  S
O81          C82   1.274       .  A
C82        C1189   1.482       .  S
C83        C1165   1.497       .  S
C86        C1204   1.506       .  S
C87          O88   1.269       .  A
C87        C1180   1.471       .  S
O89         C104   1.255       .  A
O89         Al97   1.847       .  S
C90         O100   1.254       .  A
C90          O91   1.273       .  A
C90        C1249   1.487       .  S
O91         Al93   1.958       .  S
O92          C94   1.258       .  A
O92         Al93   1.890       .  S
Al93        O101   1.883       .  S
Al93        O103   1.968       .  S
Al93        O102   1.776       .  S
C94         O107   1.271       .  A
C94        C1096   1.502       .  S
O95         C105   1.263       .  A
O95         Al97   1.883       .  S
O96         C109   1.252       .  A
O96        Al106   1.874       .  S
Al97        O110   1.948       .  S
Al97        O107   1.972       .  S
Al97        O102   1.773       .  S
O98         C105   1.274       .  A
O98        Al106   1.955       .  S
O99         C108   1.267       .  A
O99        Al106   1.939       .  S
O100       Al106   1.856       .  S
O101        C108   1.258       .  A
O102       Al106   1.776       .  S
O103        C104   1.273       .  A
C104       C1105   1.471       .  S
C105       C1129   1.482       .  S
C108       C1117   1.495       .  S
C109        O110   1.270       .  A
C109       C1192   1.484       .  S
O111        C126   1.257       .  A
O111       Al119   1.870       .  S
C112        O122   1.255       .  A
C112        O113   1.273       .  A
C112       C1069   1.496   1_655  S
O113       Al115   1.962       .  S
O114        C116   1.262       .  A
O114       Al115   1.899   1_455  S
Al115       O123   1.885       .  S
Al115       O125   1.970       .  S
Al115       O124   1.779       .  S
C116        O129   1.268   1_455  A
C116       C1060   1.496       .  S
O117        C127   1.264       .  A
O117       Al119   1.888       .  S
O118        C131   1.251       .  A
O118       Al128   1.871       .  S
Al119       O132   1.927       .  S
Al119       O129   1.952       .  S
Al119       O124   1.776       .  S
O120        C127   1.273       .  A
O120       Al128   1.947       .  S
O121        C130   1.269       .  A
O121       Al128   1.946       .  S
O122       Al128   1.867       .  S
O123        C130   1.258       .  A
O124       Al128   1.784       .  S
O125        C126   1.272       .  A
C126       C1177   1.479       .  S
C127       C1348   1.491   1_655  S
C130       C1081   1.500       .  S
C131        O132   1.264       .  A
C131       C1108   1.466       .  S
O133        C148   1.249       .  A
O133       Al141   1.848       .  S
C134        O144   1.255       .  A
C134        O135   1.274       .  A
C134       C1288   1.486       .  S
O135       Al137   1.958       .  S
O136        C138   1.262       .  A
O136       Al137   1.892       .  S
Al137       O145   1.888       .  S
Al137       O147   1.988       .  S
Al137       O146   1.781       .  S
C138        O151   1.271       .  A
C138        C997   1.501       .  S
O139        C149   1.264       .  A
O139       Al141   1.885       .  S
O140        C153   1.251       .  A
O140       Al150   1.875       .  S
Al141       O154   1.934       .  S
Al141       O151   1.973       .  S
Al141       O146   1.763       .  S
O142        C149   1.276       .  A
O142       Al150   1.960       .  S
O143        C152   1.271       .  A
O143       Al150   1.953       .  S
O144       Al150   1.857       .  S
O145        C152   1.261       .  A
O146       Al150   1.777       .  S
O147        C148   1.272       .  A
C148       C1033   1.478       .  S
C149       C1012   1.494       .  S
C152       C1045   1.501       .  S
C153        O154   1.265       .  A
C153       C1021   1.469       .  S
O155        C170   1.255       .  A
O155       Al163   1.856       .  S
C156        O166   1.257       .  A
C156        O157   1.271       .  A
C156        C961   1.493       .  S
O157       Al159   1.951       .  S
O158        C160   1.260       .  A
O158       Al159   1.891       .  S
Al159       O167   1.886       .  S
Al159       O169   1.960       .  S
Al159       O168   1.781       .  S
C160        O173   1.269       .  A
C160        C949   1.497   1_556  S
O161        C171   1.264       .  A
O161       Al163   1.894       .  S
O162        C175   1.252       .  A
O162       Al172   1.873       .  S
Al163       O176   1.934       .  S
Al163       O173   1.953       .  S
Al163       O168   1.773       .  S
O164        C171   1.274       .  A
O164       Al172   1.958       .  S
O165        C174   1.270       .  A
O165       Al172   1.956       .  S
O166       Al172   1.871       .  S
O167        C174   1.259       .  A
O168       Al172   1.781       .  S
O169        C170   1.269       .  A
C170       C1024   1.470       .  S
C171       C1153   1.500       .  S
C174        C988   1.503       .  S
C175        O176   1.266       .  A
C175        C973   1.471       .  S
O177        C192   1.257       .  A
O177       Al185   1.857       .  S
C178        O188   1.254       .  A
C178        O179   1.273       .  A
C178       C1132   1.494       .  S
O179       Al181   1.959       .  S
O180        C182   1.257       .  A
O180       Al181   1.887       .  S
Al181       O189   1.876       .  S
Al181       O191   1.974       .  S
Al181       O190   1.772       .  S
C182        O195   1.267       .  A
C182        C928   1.499       .  S
O183        C193   1.264       .  A
O183       Al185   1.880       .  S
O184        C197   1.252       .  A
O184       Al194   1.877       .  S
Al185       O198   1.931       .  S
Al185       O195   1.962       .  S
Al185       O190   1.774       .  S
O186        C193   1.278       .  A
O186       Al194   1.968       .  S
O187        C196   1.269       .  A
O187       Al194   1.951       .  S
O188       Al194   1.856       .  S
O189        C196   1.256       .  A
O190       Al194   1.778       .  S
O191        C192   1.276       .  A
C192        C976   1.475       .  S
C193       C1240   1.492       .  S
C196        C937   1.498       .  S
C197        O198   1.266       .  A
C197       C1036   1.480       .  S
O199        C214   1.256       .  A
O199       Al207   1.875       .  S
C200        O210   1.257       .  A
C200        O201   1.270       .  A
C200       C1009   1.491   1_554  S
O201       Al203   1.952       .  S
O202        C204   1.263       .  A
O202       Al203   1.901   1_556  S
Al203       O211   1.891       .  S
Al203       O213   1.955       .  S
Al203       O212   1.780       .  S
C204        O217   1.269   1_556  A
C204        C880   1.502       .  S
O205        C215   1.264       .  A
O205       Al207   1.897       .  S
O206        C219   1.252       .  A
O206       Al216   1.874       .  S
Al207       O220   1.933       .  S
Al207       O217   1.958       .  S
Al207       O212   1.777       .  S
O208        C215   1.274       .  A
O208       Al216   1.956       .  S
O209        C218   1.271       .  A
O209       Al216   1.954       .  S
O210       Al216   1.874       .  S
O211        C218   1.259       .  A
O212       Al216   1.786       .  S
O213        C214   1.268       .  A
C214        C892   1.471       .  S
C215       C1276   1.501   1_554  S
C218        C916   1.505       .  S
C219        O220   1.266       .  A
C219        C904   1.473       .  S
O221        C236   1.252       .  A
O221       Al229   1.844       .  S
C222        O232   1.255       .  A
C222        O223   1.275       .  A
C222       C1168   1.494       .  S
O223       Al225   1.969       .  S
O224        C226   1.259       .  A
O224       Al225   1.888       .  S
Al225       O233   1.886       .  S
Al225       O235   1.997       .  S
Al225       O234   1.778       .  S
C226        O239   1.270       .  A
C226        C841   1.495   1_455  S
O227        C237   1.263       .  A
O227       Al229   1.881       .  S
O228        C241   1.251       .  A
O228       Al238   1.875       .  S
Al229       O242   1.936       .  S
Al229       O239   1.967       .  S
Al229       O234   1.769       .  S
O230        C237   1.276       .  A
O230       Al238   1.957       .  S
O231        C240   1.270       .  A
O231       Al238   1.947       .  S
O232       Al238   1.862       .  S
O233        C240   1.259       .  A
O234       Al238   1.777       .  S
O235        C236   1.276       .  A
C236        C853   1.490       .  S
C237        C964   1.488       .  S
C240        C865   1.500       .  S
C241        O242   1.265       .  A
C241        C889   1.467       .  S
O243        C258   1.257       .  A
O243       Al251   1.850       .  S
C244        O254   1.257   1_565  A
C244        O245   1.273       .  A
C244       C1336   1.495       .  S
O245       Al247   1.958   1_565  S
O246        C248   1.260       .  A
O246       Al247   1.900   1_565  S
Al247       O255   1.890       .  S
Al247       O257   1.975       .  S
Al247       O256   1.779       .  S
C248        O261   1.266       .  A
C248        C820   1.494       .  S
O249        C259   1.263   1_565  A
O249       Al251   1.882   1_565  S
O250        C263   1.254       .  A
O250       Al260   1.889       .  S
Al251       O264   1.932       .  S
Al251       O261   1.948   1_545  S
Al251       O256   1.769       .  S
O252        C259   1.277       .  A
O252       Al260   1.967       .  S
O253        C262   1.269       .  A
O253       Al260   1.947       .  S
O254       Al260   1.866       .  S
O255        C262   1.258       .  A
O256       Al260   1.780       .  S
O257        C258   1.274       .  A
C258        C901   1.479       .  S
C259       C1072   1.493   1_545  S
C262        C829   1.502       .  S
C263        O264   1.266       .  A
C263        C856   1.481       .  S
O265        C280   1.266       .  A
O265       Al273   1.935       .  S
C266        O276   1.272       .  A
C266        O267   1.257       .  A
C266        C781   1.496   1_455  S
O267       Al269   1.877       .  S
O268        C270   1.274       .  A
O268       Al269   1.957       .  S
Al269       O277   1.951       .  S
Al269       O279   1.876       .  S
Al269       O278   1.787       .  S
C270        O283   1.261       .  A
C270        C769   1.497       .  S
O271        C281   1.269       .  A
O271       Al273   1.960       .  S
O272        C285   1.271       .  A
O272       Al282   1.970       .  S
Al273       O286   1.867       .  S
Al273       O283   1.883       .  S
Al273       O278   1.777       .  S
O274        C281   1.261       .  A
O274       Al282   1.895       .  S
O275        C284   1.260       .  A
O275       Al282   1.890       .  S
O276       Al282   1.960       .  S
O277        C284   1.270       .  A
O278       Al282   1.778       .  S
O279        C280   1.252       .  A
C280        C805   1.475       .  S
C281        C985   1.499   1_455  S
C284       C1264   1.503       .  S
C285        O286   1.255       .  A
C285        C793   1.477       .  S
O287        C302   1.268       .  A
O287       Al295   1.946       .  S
C288        O298   1.277       .  A
C288        O289   1.256       .  A
C288        C733   1.497       .  S
O289       Al291   1.862       .  S
O290        C292   1.277       .  A
O290       Al291   1.970       .  S
Al291       O299   1.957       .  S
Al291       O301   1.875       .  S
Al291       O300   1.779       .  S
C292        O305   1.263       .  A
C292        C748   1.501       .  S
O293        C303   1.272       .  A
O293       Al295   1.976       .  S
O294        C307   1.276       .  A
O294       Al304   2.006       .  S
Al295       O308   1.843       .  S
Al295       O305   1.889       .  S
Al295       O300   1.767       .  S
O296        C303   1.259       .  A
O296       Al304   1.891       .  S
O297        C306   1.260       .  A
O297       Al304   1.892       .  S
O298       Al304   1.979       .  S
O299        C306   1.271       .  A
O300       Al304   1.781       .  S
O301        C302   1.251       .  A
C302        C796   1.474       .  S
C303       C1225   1.498       .  S
C306        C877   1.506       .  S
C307        O308   1.249       .  A
C307        C757   1.489       .  S
O309        C324   1.268       .  A
O309       Al317   1.937       .  S
C310        O320   1.274       .  A
C310        O311   1.259       .  A
C310        C721   1.487       .  S
O311       Al313   1.872       .  S
O312        C314   1.277       .  A
O312       Al313   1.972       .  S
Al313       O321   1.954       .  S
Al313       O323   1.889       .  S
Al313       O322   1.783       .  S
C314        O327   1.262       .  A
C314        C712   1.499       .  S
O315        C325   1.268       .  A
O315       Al317   1.959       .  S
O316        C329   1.275       .  A
O316       Al326   1.977       .  S
Al317       O330   1.854       .  S
Al317       O327   1.886       .  S
Al317       O322   1.772       .  S
O318        C325   1.258       .  A
O318       Al326   1.894       .  S
O319        C328   1.258       .  A
O319       Al326   1.887       .  S
O320       Al326   1.957       .  S
O321        C328   1.269       .  A
O322       Al326   1.774       .  S
O323        C324   1.256       .  A
C324        C760   1.489       .  S
C325        C832   1.498       .  S
C328       C1000   1.505       .  S
C329        O330   1.255       .  A
C329        C808   1.478       .  S
O331        C346   1.265       .  A
O331       Al339   1.925       .  S
C332        O342   1.272   1_565  A
C332        O333   1.257   1_565  A
C332        C673   1.485       .  S
O333       Al335   1.872       .  S
O334        C336   1.278       .  A
O334       Al335   1.967       .  S
Al335       O343   1.941       .  S
Al335       O345   1.894       .  S
Al335       O344   1.782       .  S
C336        O349   1.264   1_545  A
C336        C664   1.492   1_545  S
O337        C347   1.265       .  A
O337       Al339   1.955   1_565  S
O338        C351   1.276       .  A
O338       Al348   1.975       .  S
Al339       O352   1.860       .  S
Al339       O349   1.880   1_545  S
Al339       O344   1.775       .  S
O340        C347   1.257       .  A
O340       Al348   1.889   1_565  S
O341        C350   1.258       .  A
O341       Al348   1.882       .  S
O342       Al348   1.949       .  S
O343        C350   1.267       .  A
O344       Al348   1.772       .  S
O345        C346   1.255       .  A
C346        C697   1.486       .  S
C347       C1084   1.495       .  S
C350        C952   1.496       .  S
C351        O352   1.257       .  A
C351        C685   1.476       .  S
O353        C368   1.264       .  A
O353       Al361   1.930       .  S
C354        O364   1.268       .  A
C354        O355   1.256       .  A
C354        C772   1.486       .  S
O355       Al357   1.875       .  S
O356        C358   1.277       .  A
O356       Al357   1.963       .  S
Al357       O365   1.955       .  S
Al357       O367   1.879       .  S
Al357       O366   1.781       .  S
C358        O371   1.262       .  A
C358        C640   1.503       .  S
O359        C369   1.269       .  A
O359       Al361   1.953       .  S
O360        C373   1.268       .  A
O360       Al370   1.954       .  S
Al361       O374   1.864       .  S
Al361       O371   1.891       .  S
Al361       O366   1.775       .  S
O362        C369   1.261       .  A
O362       Al370   1.895       .  S
O363        C372   1.259       .  A
O363       Al370   1.884       .  S
O364       Al370   1.942       .  S
O365        C372   1.271       .  A
O366       Al370   1.783       .  S
O367        C368   1.252       .  A
C368        C688   1.473       .  S
C369        C940   1.497       .  S
C372        C844   1.502       .  S
C373        O374   1.254       .  A
C373        C649   1.463       .  S
O375        C390   1.264       .  A
O375       Al383   1.933       .  S
C376        O386   1.276       .  A
C376        O377   1.255       .  A
C376        C625   1.495       .  S
O377       Al379   1.859       .  S
O378        C380   1.276       .  A
O378       Al379   1.964       .  S
Al379       O387   1.959       .  S
Al379       O389   1.859       .  S
Al379       O388   1.777       .  S
C380        O393   1.263       .  A
C380        C724   1.498       .  S
O381        C391   1.271       .  A
O381       Al383   1.967       .  S
O382        C395   1.273       .  A
O382       Al392   1.993       .  S
Al383       O396   1.858       .  S
Al383       O393   1.885       .  S
Al383       O388   1.767       .  S
O384        C391   1.264       .  A
O384       Al392   1.902       .  S
O385        C394   1.262       .  A
O385       Al392   1.895       .  S
O386       Al392   1.973       .  S
O387        C394   1.272       .  A
O388       Al392   1.781       .  S
O389        C390   1.248       .  A
C390        C652   1.459       .  S
C391        C913   1.499       .  S
C394       C1144   1.507       .  S
C395        O396   1.251       .  A
C395        C700   1.482       .  S
O397        C412   1.265       .  A
O397       Al405   1.928       .  S
C398        O408   1.272       .  A
C398        O399   1.258       .  A
C398        C592   1.490   1_554  S
O399       Al401   1.878       .  S
O400        C402   1.277       .  A
O400       Al401   1.971       .  S
Al401       O409   1.954       .  S
Al401       O411   1.884       .  S
Al401       O410   1.782       .  S
C402        O415   1.262       .  A
C402        C736   1.500   1_554  S
O403        C413   1.267   1_554  A
O403       Al405   1.942       .  S
O404        C417   1.271       .  A
O404       Al414   1.966       .  S
Al405       O418   1.863       .  S
Al405       O415   1.884       .  S
Al405       O410   1.774       .  S
O406        C413   1.260       .  A
O406       Al414   1.893   1_556  S
O407        C416   1.258       .  A
O407       Al414   1.888       .  S
O408       Al414   1.953       .  S
O409        C416   1.271       .  A
O410       Al414   1.779       .  S
O411        C412   1.254       .  A
C412        C613   1.480       .  S
C413       C1309   1.492       .  S
C416       C1057   1.503       .  S
C417        O418   1.256       .  A
C417        C601   1.475       .  S
O419        C434   1.266       .  A
O419       Al427   1.931       .  S
C420        O430   1.270       .  A
C420        O421   1.255       .  A
C420        C661   1.490       .  S
O421       Al423   1.871       .  S
O422        C424   1.275       .  A
O422       Al423   1.961       .  S
Al423       O431   1.958       .  S
Al423       O433   1.873       .  S
Al423       O432   1.781       .  S
C424        O437   1.261       .  A
C424        C565   1.499       .  S
O425        C435   1.271       .  A
O425       Al427   1.963       .  S
O426        C439   1.271       .  A
O426       Al436   1.969       .  S
Al427       O440   1.874       .  S
Al427       O437   1.886       .  S
Al427       O432   1.774       .  S
O428        C435   1.259       .  A
O428       Al436   1.883       .  S
O429        C438   1.259       .  A
O429       Al436   1.882       .  S
O430       Al436   1.954       .  S
O431        C438   1.273       .  A
O432       Al436   1.778       .  S
O433        C434   1.252       .  A
C434        C604   1.468       .  S
C435       C1120   1.494       .  S
C438        C817   1.500       .  S
C439        O440   1.255       .  A
C439        C577   1.474       .  S
O441        C456   1.265       .  A
O441       Al449   1.939       .  S
C442        O452   1.274       .  A
C442        O443   1.256       .  A
C442        C709   1.491       .  S
O443       Al445   1.866       .  S
O444        C446   1.278       .  A
O444       Al445   1.970       .  S
Al445       O453   1.956       .  S
Al445       O455   1.882       .  S
Al445       O454   1.776       .  S
C446        O459   1.262       .  A
C446        C628   1.494       .  S
O447        C457   1.270       .  A
O447       Al449   1.965       .  S
O448        C461   1.276       .  A
O448       Al458   1.995       .  S
Al449       O462   1.844       .  S
Al449       O459   1.876       .  S
Al449       O454   1.769       .  S
O450        C457   1.258       .  A
O450       Al458   1.889       .  S
O451        C460   1.258       .  A
O451       Al458   1.883       .  S
O452       Al458   1.964       .  S
O453        C460   1.272       .  A
O454       Al458   1.778       .  S
O455        C456   1.252       .  A
C456        C580   1.471       .  S
C457        C868   1.495       .  S
C460       C1324   1.502       .  S
C461        O462   1.251       .  A
C461        C616   1.488       .  S
O463        C478   1.267       .  A
O463       Al471   1.940       .  S
C464        O474   1.274       .  A
C464        O465   1.256       .  A
C464        C568   1.497       .  S
O465       Al467   1.869       .  S
O466        C468   1.276       .  A
O466       Al467   1.960       .  S
Al467       O475   1.951       .  S
Al467       O477   1.877       .  S
Al467       O476   1.786       .  S
C468        O481   1.263       .  A
C468        C676   1.496       .  S
O469        C479   1.270       .  A
O469       Al471   1.966       .  S
O470        C483   1.274       .  A
O470       Al480   1.980       .  S
Al471       O484   1.854       .  S
Al471       O481   1.886       .  S
Al471       O476   1.773       .  S
O472        C479   1.259       .  A
O472       Al480   1.894       .  S
O473        C482   1.256       .  A
O473       Al480   1.876       .  S
O474       Al480   1.966       .  S
O475        C482   1.269       .  A
O476       Al480   1.778       .  S
O477        C478   1.251       .  A
C478        C541   1.477       .  S
C479       C1201   1.502   1_556  S
C482       C1216   1.501       .  S
C483        O484   1.256       .  A
C483        C553   1.483       .  S
O485        C500   1.267       .  A
O485       Al493   1.937       .  S
C486        O496   1.274       .  A
C486        O487   1.259       .  A
C486        C637   1.499       .  S
O487       Al489   1.880       .  S
O488        C490   1.278       .  A
O488       Al489   1.973       .  S
Al489       O497   1.947       .  S
Al489       O499   1.898       .  S
Al489       O498   1.778       .  S
C490        O503   1.264       .  A
C490        C784   1.502       .  S
O491        C501   1.268       .  A
O491       Al493   1.959       .  S
O492        C505   1.276       .  A
O492       Al502   1.982       .  S
Al493       O506   1.856       .  S
Al493       O503   1.888       .  S
Al493       O498   1.774       .  S
O494        C501   1.259       .  A
O494       Al502   1.894       .  S
O495        C504   1.260       .  A
O495       Al502   1.896       .  S
O496       Al502   1.968       .  S
O497        C504   1.268       .  A
O498       Al502   1.778       .  S
O499        C500   1.254       .  A
C500        C529   1.488       .  S
C501       C1048   1.495   1_565  S
C504       C1093   1.504       .  S
C505        O506   1.255       .  A
C505        C544   1.485       .  S
O507        C522   1.266       .  A
O507       Al515   1.929       .  S
C508        O518   1.274       .  A
C508        O509   1.259       .  A
C508        C745   1.499   1_655  S
O509       Al511   1.883       .  S
O510        C512   1.276       .  A
O510       Al511   1.967       .  S
Al511       O519   1.953       .  S
Al511       O521   1.884       .  S
Al511       O520   1.781       .  S
C512        O525   1.260       .  A
C512        C589   1.499   1_655  S
O513        C523   1.269   1_655  A
O513       Al515   1.956       .  S
O514        C527   1.273       .  A
O514       Al524   1.992       .  S
Al515       O528   1.864       .  S
Al515       O525   1.880       .  S
Al515       O520   1.771       .  S
O516        C523   1.260       .  A
O516       Al524   1.888   1_455  S
O517        C526   1.261       .  A
O517       Al524   1.887       .  S
O518       Al524   1.963       .  S
O519        C526   1.271       .  A
O520       Al524   1.779       .  S
O521        C522   1.254       .  A
C522        C556   1.477       .  S
C523       C1384   1.492       .  S
C526        C925   1.497       .  S
C527        O528   1.252       .  A
C527        C532   1.482       .  S
C529        C530   1.416       .  A
C529        C534   1.404       .  A
C530        C531   1.415       .  A
C530        H535   1.084       .  S
C531        C532   1.406       .  A
C531        O536   1.371       .  S
C532        C533   1.405       .  A
C533        C534   1.391       .  A
C533        H537   1.083       .  S
C534        O538   1.372       .  S
O536        H540   0.992       .  S
O538        H539   0.992       .  S
C541        C542   1.395       .  A
C541        C546   1.412       .  A
C542        C543   1.393       .  A
C542        H547   1.080       .  S
C543        C544   1.415       .  A
C543        O548   1.373       .  S
C544        C545   1.407       .  A
C545        C546   1.409       .  A
C545        H549   1.083       .  S
C546        O550   1.371       .  S
O548        H552   0.992       .  S
O550        H551   0.992       .  S
C553        C554   1.406       .  A
C553        C558   1.409       .  A
C554        C555   1.391       .  A
C554        H559   1.079       .  S
C555        C556   1.404       .  A
C555        O560   1.372       .  S
C556        C557   1.408       .  A
C557        C558   1.409       .  A
C557        H561   1.083       .  S
C558        O562   1.370       .  S
O560        H564   0.993       .  S
O562        H563   0.992       .  S
C565        C566   1.403       .  A
C565        C570   1.419       .  A
C566        C567   1.404   1_554  A
C566        H571   1.083       .  S
C567        C568   1.418       .  A
C567        O572   1.372       .  S
C568        C569   1.403   1_556  A
C569        C570   1.408       .  A
C569        H573   1.083       .  S
C570        O574   1.372       .  S
O572        H576   0.992       .  S
O574        H575   0.992       .  S
C577        C578   1.406       .  A
C577        C582   1.409       .  A
C578        C579   1.405       .  A
C578        H583   1.083       .  S
C579        C580   1.405       .  A
C579        O584   1.371       .  S
C580        C581   1.401       .  A
C581        C582   1.399       .  A
C581        H585   1.084       .  S
C582        O586   1.371       .  S
O584        H588   0.992       .  S
O586        H587   0.992       .  S
C589        C590   1.405       .  A
C589        C594   1.420       .  A
C590        C591   1.406       .  A
C590        H595   1.083   1_455  S
C591        C592   1.413       .  A
C591        O596   1.372       .  S
C592        C593   1.402       .  A
C593        C594   1.405       .  A
C593        H597   1.084       .  S
C594        O598   1.371       .  S
O596        H600   0.992       .  S
O598        H599   0.993       .  S
C601        C602   1.407       .  A
C601        C606   1.409       .  A
C602        C603   1.407       .  A
C602        H607   1.084       .  S
C603        C604   1.409       .  A
C603        O608   1.372       .  S
C604        C605   1.397       .  A
C605        C606   1.392       .  A
C605        H609   1.082       .  S
C606        O610   1.371       .  S
O608        H612   0.992       .  S
O610        H611   0.991       .  S
C613        C614   1.412       .  A
C613        C618   1.403       .  A
C614        C615   1.410       .  A
C614        H619   1.083       .  S
C615        C616   1.409       .  A
C615        O620   1.371       .  S
C616        C617   1.411       .  A
C617        C618   1.387       .  A
C617        H621   1.084       .  S
C618        O622   1.372       .  S
O620        H624   0.991       .  S
O622        H623   0.992       .  S
C625        C626   1.413       .  A
C625        C630   1.407       .  A
C626        C627   1.403       .  A
C626        H631   1.083       .  S
C627        C628   1.407       .  A
C627        O632   1.372       .  S
C628        C629   1.413       .  A
C629        C630   1.407       .  A
C629        H633   1.083       .  S
C630        O634   1.371       .  S
O632        H636   0.992       .  S
O634        H635   0.992       .  S
C637        C638   1.405   1_565  A
C637        C642   1.415       .  A
C638        C639   1.412       .  A
C638        H643   1.084       .  S
C639        C640   1.421       .  A
C639        O644   1.372       .  S
C640        C641   1.404       .  A
C641        C642   1.405   1_545  A
C641        H645   1.083       .  S
C642        O646   1.372       .  S
O644        H648   0.992       .  S
O646        H647   0.993       .  S
C649        C650   1.404       .  A
C649        C654   1.407       .  A
C650        C651   1.401       .  A
C650        H655   1.084       .  S
C651        C652   1.405       .  A
C651        O656   1.371       .  S
C652        C653   1.399       .  A
C653        C654   1.394       .  A
C653        H657   1.084       .  S
C654        O658   1.371       .  S
O656        H660   0.992       .  S
O658        H659   0.992       .  S
C661        C662   1.410       .  A
C661        C666   1.408       .  A
C662        C663   1.403       .  A
C662        H667   1.084       .  S
C663        C664   1.409       .  A
C663        O668   1.371       .  S
C664        C665   1.411       .  A
C665        C666   1.404       .  A
C665        H669   1.083       .  S
C666        O670   1.371       .  S
O668        H672   0.993       .  S
O670        H671   0.991       .  S
C673        C674   1.401       .  A
C673        C678   1.412   1_554  A
C674        C675   1.404       .  A
C674        H679   1.084       .  S
C675        C676   1.418   1_554  A
C675        O680   1.371       .  S
C676        C677   1.406       .  A
C677        C678   1.405       .  A
C677        H681   1.083       .  S
C678        O682   1.372       .  S
O680        H684   0.992       .  S
O682        H683   0.992   1_556  S
C685        C686   1.405       .  A
C685        C690   1.411       .  A
C686        C687   1.405       .  A
C686        H691   1.084       .  S
C687        C688   1.409       .  A
C687        O692   1.371       .  S
C688        C689   1.399       .  A
C689        C690   1.397       .  A
C689        H693   1.082       .  S
C690        O694   1.373       .  S
O692        H696   0.992       .  S
O694        H695   0.992       .  S
C697        C698   1.416       .  A
C697        C702   1.406       .  A
C698        C699   1.412       .  A
C698        H703   1.083       .  S
C699        C700   1.405       .  A
C699        O704   1.371       .  S
C700        C701   1.407       .  A
C701        C702   1.385       .  A
C701        H705   1.083       .  S
C702        O706   1.372       .  S
O704        H708   0.992       .  S
O706        H707   0.992       .  S
C709        C710   1.402       .  A
C709        C714   1.415       .  A
C710        C711   1.407       .  A
C710        H715   1.084       .  S
C711        C712   1.420       .  A
C711        O716   1.371       .  S
C712        C713   1.404       .  A
C713        C714   1.404       .  A
C713        H717   1.083       .  S
C714        O718   1.372       .  S
O716        H720   0.992       .  S
O718        H719   0.992       .  S
C721        C722   1.407       .  A
C721        C726   1.407       .  A
C722        C723   1.404       .  A
C722        H727   1.084       .  S
C723        C724   1.412       .  A
C723        O728   1.371       .  S
C724        C725   1.413       .  A
C725        C726   1.406       .  A
C725        H729   1.083       .  S
C726        O730   1.371       .  S
O728        H732   0.992       .  S
O730        H731   0.992       .  S
C733        C734   1.412       .  A
C733        C738   1.408       .  A
C734        C735   1.404       .  A
C734        H739   1.084       .  S
C735        C736   1.408       .  A
C735        O740   1.371   1_556  S
C736        C737   1.414       .  A
C737        C738   1.410       .  A
C737        H741   1.083       .  S
C738        O742   1.371       .  S
O740        H744   0.991       .  S
O742        H743   0.991       .  S
C745        C746   1.404       .  A
C745        C750   1.418       .  A
C746        C747   1.407       .  A
C746        H751   1.083       .  S
C747        C748   1.418       .  A
C747        O752   1.371       .  S
C748        C749   1.405       .  A
C749        C750   1.407       .  A
C749        H753   1.083       .  S
C750        O754   1.372       .  S
O752        H756   0.992       .  S
O754        H755   0.992   1_455  S
C757        C758   1.411       .  A
C757        C762   1.405       .  A
C758        C759   1.388       .  A
C758        H763   1.083       .  S
C759        C760   1.405       .  A
C759        O764   1.372       .  S
C760        C761   1.417       .  A
C761        C762   1.413       .  A
C761        H765   1.083       .  S
C762        O766   1.371       .  S
O764        H768   0.992       .  S
O766        H767   0.992       .  S
C769        C770   1.406       .  A
C769        C774   1.419   1_455  A
C770        C771   1.404   1_455  A
C770        H775   1.083       .  S
C771        C772   1.413       .  A
C771        O776   1.372       .  S
C772        C773   1.401       .  A
C773        C774   1.403       .  A
C773        H777   1.084       .  S
C774        O778   1.372       .  S
O776        H780   0.992   1_655  S
O778        H779   0.992       .  S
C781        C782   1.409       .  A
C781        C786   1.409       .  A
C782        C783   1.406   1_545  A
C782        H787   1.084   1_655  S
C783        C784   1.411       .  A
C783        O788   1.371       .  S
C784        C785   1.414       .  A
C785        C786   1.408   1_565  A
C785        H789   1.083       .  S
C786        O790   1.371       .  S
O788        H792   0.992       .  S
O790        H791   0.992       .  S
C793        C794   1.403       .  A
C793        C798   1.410       .  A
C794        C795   1.396       .  A
C794        H799   1.084       .  S
C795        C796   1.407       .  A
C795        O800   1.370       .  S
C796        C797   1.404       .  A
C797        C798   1.407       .  A
C797        H801   1.084       .  S
C798        O802   1.370       .  S
O800        H804   0.992       .  S
O802        H803   0.991       .  S
C805        C806   1.399       .  A
C805        C810   1.410       .  A
C806        C807   1.395       .  A
C806        H811   1.083       .  S
C807        C808   1.413       .  A
C807        O812   1.373       .  S
C808        C809   1.405       .  A
C809        C810   1.407       .  A
C809        H813   1.084       .  S
C810        O814   1.371       .  S
O812        H816   0.992       .  S
O814        H815   0.992       .  S
C817        C818   1.406       .  A
C817        C822   1.419       .  A
C818        C819   1.408       .  A
C818        H823   1.083       .  S
C819        C820   1.416       .  A
C819        O824   1.371       .  S
C820        C821   1.403       .  A
C821        C822   1.403       .  A
C821        H825   1.084       .  S
C822        O826   1.372       .  S
O824        H828   0.992       .  S
O826        H827   0.992       .  S
C829        C830   1.410       .  A
C829        C834   1.413       .  A
C830        C831   1.405       .  A
C830        H835   1.083       .  S
C831        C832   1.413       .  A
C831        O836   1.372       .  S
C832        C833   1.409       .  A
C833        C834   1.409       .  A
C833        H837   1.083       .  S
C834        O838   1.371       .  S
O836        H840   0.992       .  S
O838        H839   0.992       .  S
C841        C842   1.404       .  A
C841        C846   1.414       .  A
C842        C843   1.401       .  A
C842        H847   1.084       .  S
C843        C844   1.418       .  A
C843        O848   1.372       .  S
C844        C845   1.408       .  A
C845        C846   1.411       .  A
C845        H849   1.083       .  S
C846        O850   1.371   1_655  S
O848        H852   0.992       .  S
O850        H851   0.993       .  S
C853        C854   1.410       .  A
C853        C858   1.410       .  A
C854        C855   1.387       .  A
C854        H859   1.083       .  S
C855        C856   1.403       .  A
C855        O860   1.372       .  S
C856        C857   1.412       .  A
C857        C858   1.412       .  A
C857        H861   1.083       .  S
C858        O862   1.371       .  S
O860        H864   0.992       .  S
O862        H863   0.992       .  S
C865        C866   1.408       .  A
C865        C870   1.417       .  A
C866        C867   1.409       .  A
C866        H871   1.083       .  S
C867        C868   1.413       .  A
C867        O872   1.371       .  S
C868        C869   1.406       .  A
C869        C870   1.402       .  A
C869        H873   1.084       .  S
C870        O874   1.372       .  S
O872        H876   0.990       .  S
O874        H875   0.993       .  S
C877        C878   1.409       .  A
C877        C882   1.418       .  A
C878        C879   1.412       .  A
C878        H883   1.083       .  S
C879        C880   1.417       .  A
C879        O884   1.371       .  S
C880        C881   1.405       .  A
C881        C882   1.404       .  A
C881        H885   1.084       .  S
C882        O886   1.371       .  S
O884        H888   0.991       .  S
O886        H887   0.992       .  S
C889        C890   1.400       .  A
C889        C894   1.406       .  A
C890        C891   1.396       .  A
C890        H895   1.083       .  S
C891        C892   1.407       .  A
C891        O896   1.370       .  S
C892        C893   1.405       .  A
C893        C894   1.404       .  A
C893        H897   1.083       .  S
C894        O898   1.371       .  S
O896        H900   0.992       .  S
O898        H899   0.992       .  S
C901        C902   1.404       .  A
C901        C906   1.411       .  A
C902        C903   1.388       .  A
C902        H907   1.081       .  S
C903        C904   1.401       .  A
C903        O908   1.369       .  S
C904        C905   1.409       .  A
C905        C906   1.409       .  A
C905        H909   1.083       .  S
C906        O910   1.371       .  S
O908        H912   0.992       .  S
O910        H911   0.991       .  S
C913        C914   1.404       .  A
C913        C918   1.416       .  A
C914        C915   1.404       .  A
C914        H919   1.084       .  S
C915        C916   1.418       .  A
C915        O920   1.372       .  S
C916        C917   1.408       .  A
C917        C918   1.411       .  A
C917        H921   1.083       .  S
C918        O922   1.371       .  S
O920        H924   0.992       .  S
O922        H923   0.992       .  S
C925        C926   1.409       .  A
C925        C930   1.412       .  A
C926        C927   1.411       .  A
C926        H931   1.083       .  S
C927        C928   1.415       .  A
C927        O932   1.371       .  S
C928        C929   1.407       .  A
C929        C930   1.400       .  A
C929        H933   1.083       .  S
C930        O934   1.372       .  S
O932        H936   0.992       .  S
O934        H935   0.992       .  S
C937        C938   1.409       .  A
C937        C942   1.411       .  A
C938        C939   1.401       .  A
C938        H943   1.083       .  S
C939        C940   1.413       .  A
C939        O944   1.372       .  S
C940        C941   1.410       .  A
C941        C942   1.409       .  A
C941        H945   1.083       .  S
C942        O946   1.371       .  S
O944        H948   0.993       .  S
O946        H947   0.992       .  S
C949        C950   1.410       .  A
C949        C954   1.414       .  A
C950        C951   1.408       .  A
C950        H955   1.083   1_554  S
C951        C952   1.412       .  A
C951        O956   1.371       .  S
C952        C953   1.408       .  A
C953        C954   1.401       .  A
C953        H957   1.084       .  S
C954        O958   1.372       .  S
O956        H960   0.992       .  S
O958        H959   0.992       .  S
C961        C962   1.411   1_556  A
C961        C966   1.410   1_556  A
C962        C963   1.402   1_655  A
C962        H967   1.083   1_554  S
C963        C964   1.407       .  A
C963        O968   1.372       .  S
C964        C965   1.409       .  A
C965        C966   1.405   1_455  A
C965        H969   1.084       .  S
C966        O970   1.371       .  S
O968        H972   0.992       .  S
O970        H971   0.992       .  S
C973        C974   1.398       .  A
C973        C978   1.409       .  A
C974        C975   1.394       .  A
C974        H979   1.082       .  S
C975        C976   1.413       .  A
C975        O980   1.373       .  S
C976        C977   1.404       .  A
C977        C978   1.405       .  A
C977        H981   1.084       .  S
C978        O982   1.371       .  S
O980        H984   0.992       .  S
O982        H983   0.993       .  S
C985        C986   1.410       .  A
C985        C990   1.411       .  A
C986        C987   1.412       .  A
C986        H991   1.083   1_655  S
C987        C988   1.413       .  A
C987        O992   1.371       .  S
C988        C989   1.410       .  A
C989        C990   1.403       .  A
C989        H993   1.083       .  S
C990        O994   1.372       .  S
O992        H996   0.992   1_655  S
O994        H995   0.992       .  S
C997        C998   1.404       .  A
C997       C1002   1.417       .  A
C998        C999   1.401       .  A
C998       H1003   1.083       .  S
C999       C1000   1.417       .  A
C999       O1004   1.372       .  S
C1000      C1001   1.410       .  A
C1001      C1002   1.413       .  A
C1001      H1005   1.083       .  S
C1002      O1006   1.371       .  S
O1004      H1008   0.993       .  S
O1006      H1007   0.992       .  S
C1009      C1010   1.409       .  A
C1009      C1014   1.409       .  A
C1010      C1011   1.402       .  A
C1010      H1015   1.084       .  S
C1011      C1012   1.410       .  A
C1011      O1016   1.371       .  S
C1012      C1013   1.411       .  A
C1013      C1014   1.406       .  A
C1013      H1017   1.083       .  S
C1014      O1018   1.371       .  S
O1016      H1020   0.992       .  S
O1018      H1019   0.992       .  S
C1021      C1022   1.405       .  A
C1021      C1026   1.404       .  A
C1022      C1023   1.406       .  A
C1022      H1027   1.084       .  S
C1023      C1024   1.411       .  A
C1023      O1028   1.371       .  S
C1024      C1025   1.400       .  A
C1025      C1026   1.389       .  A
C1025      H1029   1.083       .  S
C1026      O1030   1.369       .  S
O1028      H1032   0.992       .  S
O1030      H1031   0.991       .  S
C1033      C1034   1.408       .  A
C1033      C1038   1.404       .  A
C1034      C1035   1.383       .  A
C1034      H1039   1.083       .  S
C1035      C1036   1.403       .  A
C1035      O1040   1.372       .  S
C1036      C1037   1.416       .  A
C1037      C1038   1.409       .  A
C1037      H1041   1.083       .  S
C1038      O1042   1.371       .  S
O1040      H1044   0.993       .  S
O1042      H1043   0.992       .  S
C1045      C1046   1.410       .  A
C1045      C1050   1.414       .  A
C1046      C1047   1.403       .  A
C1046      H1051   1.083       .  S
C1047      C1048   1.410       .  A
C1047      O1052   1.372       .  S
C1048      C1049   1.410   1_545  A
C1049      C1050   1.410   1_565  A
C1049      H1053   1.084       .  S
C1050      O1054   1.371       .  S
O1052      H1056   0.992       .  S
O1054      H1055   0.992       .  S
C1057      C1058   1.408       .  A
C1057      C1062   1.418       .  A
C1058      C1059   1.409       .  A
C1058      H1063   1.083       .  S
C1059      C1060   1.416       .  A
C1059      O1064   1.371       .  S
C1060      C1061   1.404       .  A
C1061      C1062   1.403       .  A
C1061      H1065   1.084       .  S
C1062      O1066   1.372       .  S
O1064      H1068   0.991       .  S
O1066      H1067   0.992       .  S
C1069      C1070   1.403       .  A
C1069      C1074   1.419       .  A
C1070      C1071   1.405       .  A
C1070      H1075   1.083       .  S
C1071      C1072   1.417       .  A
C1071      O1076   1.371       .  S
C1072      C1073   1.402       .  A
C1073      C1074   1.403       .  A
C1073      H1077   1.084       .  S
C1074      O1078   1.372       .  S
O1076      H1080   0.992       .  S
O1078      H1079   0.992   1_455  S
C1081      C1082   1.409       .  A
C1081      C1086   1.416       .  A
C1082      C1083   1.410       .  A
C1082      H1087   1.083       .  S
C1083      C1084   1.414       .  A
C1083      O1088   1.371       .  S
C1084      C1085   1.405       .  A
C1085      C1086   1.400       .  A
C1085      H1089   1.084       .  S
C1086      O1090   1.372       .  S
O1088      H1092   0.992       .  S
O1090      H1091   0.993       .  S
C1093      C1094   1.408       .  A
C1093      C1098   1.415       .  A
C1094      C1095   1.404       .  A
C1094      H1099   1.083       .  S
C1095      C1096   1.414       .  A
C1095      O1100   1.372       .  S
C1096      C1097   1.410       .  A
C1097      C1098   1.412       .  A
C1097      H1101   1.083       .  S
C1098      O1102   1.371       .  S
O1100      H1104   0.993       .  S
O1102      H1103   0.992       .  S
C1105      C1106   1.406       .  A
C1105      C1110   1.411       .  A
C1106      C1107   1.405       .  A
C1106      H1111   1.084       .  S
C1107      C1108   1.408       .  A
C1107      O1112   1.371       .  S
C1108      C1109   1.393       .  A
C1109      C1110   1.391       .  A
C1109      H1113   1.079       .  S
C1110      O1114   1.374       .  S
O1112      H1116   0.992       .  S
O1114      H1115   0.993       .  S
C1117      C1118   1.407       .  A
C1117      C1122   1.413       .  A
C1118      C1119   1.399       .  A
C1118      H1123   1.083       .  S
C1119      C1120   1.414       .  A
C1119      O1124   1.372       .  S
C1120      C1121   1.408       .  A
C1121      C1122   1.408       .  A
C1121      H1125   1.083       .  S
C1122      O1126   1.371       .  S
O1124      H1128   0.992       .  S
O1126      H1127   0.991       .  S
C1129      C1130   1.408       .  A
C1129      C1134   1.404       .  A
C1130      C1131   1.405       .  A
C1130      H1135   1.084       .  S
C1131      C1132   1.409       .  A
C1131      O1136   1.371       .  S
C1132      C1133   1.414       .  A
C1133      C1134   1.400       .  A
C1133      H1137   1.083       .  S
C1134      O1138   1.372       .  S
O1136      H1140   0.992       .  S
O1138      H1139   0.992       .  S
C1141      C1142   1.411       .  A
C1141      C1146   1.412       .  A
C1142      C1143   1.414       .  A
C1142      H1147   1.083       .  S
C1143      C1144   1.416       .  A
C1143      O1148   1.371       .  S
C1144      C1145   1.409       .  A
C1145      C1146   1.403       .  A
C1145      H1149   1.083       .  S
C1146      O1150   1.370       .  S
O1148      H1152   0.992       .  S
O1150      H1151   0.992       .  S
C1153      C1154   1.412       .  A
C1153      C1158   1.412       .  A
C1154      C1155   1.408   1_556  A
C1154      H1159   1.083       .  S
C1155      C1156   1.408       .  A
C1155      O1160   1.370       .  S
C1156      C1157   1.410       .  A
C1157      C1158   1.404   1_554  A
C1157      H1161   1.084       .  S
C1158      O1162   1.372       .  S
O1160      H1164   0.991       .  S
O1162      H1163   0.992       .  S
C1165      C1166   1.413       .  A
C1165      C1170   1.409       .  A
C1166      C1167   1.406       .  A
C1166      H1171   1.083       .  S
C1167      C1168   1.407   1_655  A
C1167      O1172   1.371       .  S
C1168      C1169   1.412   1_455  A
C1169      C1170   1.404       .  A
C1169      H1173   1.084   1_655  S
C1170      O1174   1.372       .  S
O1172      H1176   0.992       .  S
O1174      H1175   0.992       .  S
C1177      C1178   1.405       .  A
C1177      C1182   1.409       .  A
C1178      C1179   1.407       .  A
C1178      H1183   1.084       .  S
C1179      C1180   1.409       .  A
C1179      O1184   1.371       .  S
C1180      C1181   1.398       .  A
C1181      C1182   1.395       .  A
C1181      H1185   1.084       .  S
C1182      O1186   1.369       .  S
O1184      H1188   0.992       .  S
O1186      H1187   0.992       .  S
C1189      C1190   1.399       .  A
C1189      C1194   1.417       .  A
C1190      C1191   1.408       .  A
C1190      H1195   1.083       .  S
C1191      C1192   1.420       .  A
C1191      O1196   1.371       .  S
C1192      C1193   1.395       .  A
C1193      C1194   1.393       .  A
C1193      H1197   1.084       .  S
C1194      O1198   1.372       .  S
O1196      H1200   0.992       .  S
O1198      H1199   0.992       .  S
C1201      C1202   1.410   1_554  A
C1201      C1206   1.413       .  A
C1202      C1203   1.412   1_556  A
C1202      H1207   1.083       .  S
C1203      C1204   1.415       .  A
C1203      O1208   1.371       .  S
C1204      C1205   1.409       .  A
C1205      C1206   1.405       .  A
C1205      H1209   1.083       .  S
C1206      O1210   1.372       .  S
O1208      H1212   0.992   1_554  S
O1210      H1211   0.992       .  S
C1213      C1214   1.403       .  A
C1213      C1218   1.416       .  A
C1214      C1215   1.400       .  A
C1214      H1219   1.084       .  S
C1215      C1216   1.418       .  A
C1215      O1220   1.372       .  S
C1216      C1217   1.408       .  A
C1217      C1218   1.411       .  A
C1217      H1221   1.083       .  S
C1218      O1222   1.371       .  S
O1220      H1224   0.992       .  S
O1222      H1223   0.992       .  S
C1225      C1226   1.409       .  A
C1225      C1230   1.412       .  A
C1226      C1227   1.411       .  A
C1226      H1231   1.084       .  S
C1227      C1228   1.416       .  A
C1227      O1232   1.371       .  S
C1228      C1229   1.409       .  A
C1229      C1230   1.404       .  A
C1229      H1233   1.083       .  S
C1230      O1234   1.371       .  S
O1232      H1236   0.992       .  S
O1234      H1235   0.992       .  S
C1237      C1238   1.411       .  A
C1237      C1242   1.407       .  A
C1238      C1239   1.402       .  A
C1238      H1243   1.084       .  S
C1239      C1240   1.408       .  A
C1239      O1244   1.372       .  S
C1240      C1241   1.412       .  A
C1241      C1242   1.405       .  A
C1241      H1245   1.083       .  S
C1242      O1246   1.371       .  S
O1244      H1248   0.992       .  S
O1246      H1247   0.992       .  S
C1249      C1250   1.401       .  A
C1249      C1254   1.417       .  A
C1250      C1251   1.403       .  A
C1250      H1255   1.084       .  S
C1251      C1252   1.419       .  A
C1251      O1256   1.372       .  S
C1252      C1253   1.401       .  A
C1253      C1254   1.400       .  A
C1253      H1257   1.083       .  S
C1254      O1258   1.372       .  S
O1256      H1260   0.993       .  S
O1258      H1259   0.992       .  S
C1261      C1262   1.403       .  A
C1261      C1266   1.415   1_545  A
C1262      C1263   1.401       .  A
C1262      H1267   1.084       .  S
C1263      C1264   1.417       .  A
C1263      O1268   1.371       .  S
C1264      C1265   1.410       .  A
C1265      C1266   1.411   1_545  A
C1265      H1269   1.083       .  S
C1266      O1270   1.372       .  S
O1268      H1272   0.992       .  S
O1270      H1271   0.992       .  S
C1273      C1274   1.409       .  A
C1273      C1278   1.409   1_565  A
C1274      C1275   1.404   1_565  A
C1274      H1279   1.084       .  S
C1275      C1276   1.412       .  A
C1275      O1280   1.371   1_556  S
C1276      C1277   1.413       .  A
C1277      C1278   1.408       .  A
C1277      H1281   1.083       .  S
C1278      O1282   1.371       .  S
O1280      H1284   0.992   1_554  S
O1282      H1283   0.992       .  S
C1285      C1286   1.411       .  A
C1285      C1290   1.408       .  A
C1286      C1287   1.401   1_565  A
C1286      H1291   1.083       .  S
C1287      C1288   1.406       .  A
C1287      O1292   1.371       .  S
C1288      C1289   1.411       .  A
C1289      C1290   1.401   1_545  A
C1289      H1293   1.084       .  S
C1290      O1294   1.372       .  S
O1292      H1296   0.992       .  S
O1294      H1295   0.992       .  S
C1297      C1298   1.394       .  A
C1297      C1302   1.418       .  A
C1298      C1299   1.387       .  A
C1298      H1303   1.084       .  S
C1299      C1300   1.422       .  A
C1299      O1304   1.373       .  S
C1300      C1301   1.402       .  A
C1301      C1302   1.410       .  A
C1301      H1305   1.083       .  S
C1302      O1306   1.371       .  S
O1304      H1308   0.992       .  S
O1306      H1307   0.992       .  S
C1309      C1310   1.409       .  A
C1309      C1314   1.412       .  A
C1310      C1311   1.406       .  A
C1310      H1315   1.083       .  S
C1311      C1312   1.411       .  A
C1311      O1316   1.371       .  S
C1312      C1313   1.409       .  A
C1313      C1314   1.402       .  A
C1313      H1317   1.083       .  S
C1314      O1318   1.373       .  S
O1316      H1320   0.992       .  S
O1318      H1319   0.993       .  S
C1321      C1322   1.402       .  A
C1321      C1326   1.417       .  A
C1322      C1323   1.402       .  A
C1322      H1327   1.084       .  S
C1323      C1324   1.419       .  A
C1323      O1328   1.371       .  S
C1324      C1325   1.407       .  A
C1325      C1326   1.409       .  A
C1325      H1329   1.083       .  S
C1326      O1330   1.372       .  S
O1328      H1332   0.992       .  S
O1330      H1331   0.992       .  S
C1333      C1334   1.407       .  A
C1333      C1338   1.406       .  A
C1334      C1335   1.405       .  A
C1334      H1339   1.083       .  S
C1335      C1336   1.410       .  A
C1335      O1340   1.371       .  S
C1336      C1337   1.413       .  A
C1337      C1338   1.402       .  A
C1337      H1341   1.083       .  S
C1338      O1342   1.372       .  S
O1340      H1344   0.993       .  S
O1342      H1343   0.992       .  S
C1345      C1346   1.408       .  A
C1345      C1350   1.410       .  A
C1346      C1347   1.401       .  A
C1346      H1351   1.084       .  S
C1347      C1348   1.410       .  A
C1347      O1352   1.372   1_455  S
C1348      C1349   1.410       .  A
C1349      C1350   1.405       .  A
C1349      H1353   1.083       .  S
C1350      O1354   1.371       .  S
O1352      H1356   0.993   1_655  S
O1354      H1355   0.992       .  S
C1357      C1358   1.407       .  A
C1357      C1362   1.406       .  A
C1358      C1359   1.408       .  A
C1358      H1363   1.083       .  S
C1359      C1360   1.411       .  A
C1359      O1364   1.371       .  S
C1360      C1361   1.406       .  A
C1361      C1362   1.391       .  A
C1361      H1365   1.084       .  S
C1362      O1366   1.371       .  S
O1364      H1368   0.991       .  S
O1366      H1367   0.991       .  S
C1369      C1370   1.400       .  A
C1369      C1374   1.409       .  A
C1370      C1371   1.391       .  A
C1370      H1375   1.083       .  S
C1371      C1372   1.406       .  A
C1371      O1376   1.368       .  S
C1372      C1373   1.402       .  A
C1373      C1374   1.402       .  A
C1373      H1377   1.084       .  S
C1374      O1378   1.370       .  S
O1376      H1380   0.993       .  S
O1378      H1379   0.991       .  S
C1381      C1382   1.407       .  A
C1381      C1386   1.415       .  A
C1382      C1383   1.406       .  A
C1382      H1387   1.083       .  S
C1383      C1384   1.414       .  A
C1383      O1388   1.370       .  S
C1384      C1385   1.405       .  A
C1385      C1386   1.399       .  A
C1385      H1389   1.084       .  S
C1386      O1390   1.372       .  S
O1388      H1392   0.992       .  S
O1390      H1391   0.992       .  S
