geometry optimzed in LAMMPS
_audit_creation_date              2020-11-30 
_audit_creation_method            'lammps2cif' 
_symmetry_space_group_name_H-M    'P1' 
_symmetry_Int_Tables_number       1 
_symmetry_cell_setting            triclinic 
loop_ 
_symmetry_equiv_pos_as_xyz 
  x,y,z 
_cell_length_a                    26.185736639377616 
_cell_length_b                    26.839910808296157 
_cell_length_c                    28.46775853890874 
_cell_angle_alpha                 89.44001356252153 
_cell_angle_beta                  89.81253312025483 
_cell_angle_gamma                 89.83705738364351 
loop_ 
_atom_site_label 
_atom_site_type_symbol 
_atom_site_fract_x 
_atom_site_fract_y 
_atom_site_fract_z 
_atom_site_charge 
O1          O  0.05278525  0.32852825  0.15192139    -0.57040
C2          C  0.19748114  0.38174811  0.20722010     0.75590
O3          O  0.15626081  0.34948024  0.04491538    -0.58190
C4          C  0.02577436  0.36781305  0.14983009     0.75560
C5          C  0.13405661  0.47431275  0.09002464     0.77960
Cd6        Cd  0.13143869  0.37498288  0.12514574     1.37470
O7          O  0.15681879  0.40629507  0.20192317    -0.57030
O8          O  0.09370699  0.45158107  0.10108354    -0.55840
C9          C  0.12943212  0.31014687  0.04447647     0.77920
O10         O  0.17488574  0.44893709  0.08826293    -0.58220
O11         O  0.20722436  0.35071474  0.17490489    -0.56670
O12         O  0.04891377  0.40826686  0.14240907    -0.56660
O13         O  0.11198389  0.29621802  0.08399923    -0.55830
O14         O  0.84097453  0.35103534  0.04428104    -0.57040
C15         C  0.85807197  0.47413511  0.08749395     0.75590
O16         O  0.83804248  0.40713456  0.20102601    -0.58190
C17         C  0.86614832  0.31061513  0.04349880     0.75560
C18         C  0.96996302  0.36805740  0.14937782     0.77960
Cd19       Cd  0.86463999  0.37550627  0.12406847     1.37460
O20         O  0.81789518  0.44806669  0.08931174    -0.57030
O21         O  0.94704829  0.40859942  0.14113440    -0.55840
C22         C  0.79772993  0.38204790  0.20593912     0.77920
O23         O  0.94286253  0.32901688  0.15165570    -0.58220
O24         O  0.89984552  0.45220632  0.09559168    -0.56670
O25         O  0.88282009  0.29562028  0.08290996    -0.56660
O26         O  0.78894706  0.35120125  0.17332818    -0.55830
O27         O  0.17213327  0.55529995  0.08962177    -0.57040
C28         C  0.11609370  0.69233312  0.04030370     0.75590
O29         O  0.04737896  0.67452454  0.15431120    -0.58190
C30         C  0.13251217  0.52844047  0.08829852     0.75560
C31         C  0.19238919  0.61787701  0.20412652     0.77960
Cd32       Cd  0.12237140  0.62610611  0.12330306     1.37470
O33         O  0.09205784  0.65178601  0.04453266    -0.57030
O34         O  0.20098136  0.64848429  0.17053273    -0.55840
C35         C  0.02129845  0.63507356  0.15896102     0.77920
O36         O  0.15161793  0.59326301  0.20037770    -0.58220
O37         O  0.14530160  0.70250535  0.07460906    -0.56670
O38         O  0.09011694  0.54982280  0.09408094    -0.56660
O39         O  0.04491674  0.59430192  0.15592319    -0.55830
O40         O  0.81697676  0.55390483  0.08886501    -0.57040
C41         C  0.87345400  0.69380535  0.03649770     0.75590
O42         O  0.83931008  0.59234945  0.19722106    -0.58190
C43         C  0.85749186  0.52832120  0.08524613     0.75560
C44         C  0.96562750  0.63429255  0.15761934     0.77960
Cd45       Cd  0.86547739  0.62650827  0.11976320     1.37470
O46         O  0.90156792  0.65654072  0.04512804    -0.57030
O47         O  0.94398671  0.59360505  0.14896798    -0.55840
C48         C  0.79899916  0.61739094  0.20321391     0.77920
O49         O  0.93796943  0.67306593  0.15686277    -0.58220
O50         O  0.83776057  0.70089945  0.06621180    -0.56670
O51         O  0.89922882  0.55116908  0.08827919    -0.56660
O52         O  0.78893190  0.64860929  0.17043170    -0.55830
O53         O  0.31987949  0.05703322  0.15649854    -0.57040
C54         C  0.36676978  0.19417723  0.21092807     0.75590
O55         O  0.44573543  0.17364414  0.09968629    -0.58190
C56         C  0.35990921  0.03061821  0.15408304     0.75560
C57         C  0.29939033  0.13060386  0.04954520     0.77960
Cd58       Cd  0.36526356  0.13324844  0.12936879     1.37470
O59         O  0.34056393  0.15475054  0.20946241    -0.57030
O60         O  0.28400536  0.11740171  0.08972933    -0.55840
C61         C  0.47124877  0.13364392  0.10398968     0.77920
O62         O  0.34121127  0.15414514  0.04861199    -0.58220
O63         O  0.38273722  0.21058981  0.17187456    -0.56670
O64         O  0.40148371  0.05277413  0.14570586    -0.56660
O65         O  0.44681365  0.09477265  0.11517504    -0.55830
O66         O  0.44066181  0.83163063  0.10167812    -0.57040
C67         C  0.30047573  0.87620376  0.04646552     0.75590
O68         O  0.33895139  0.84762236  0.20784235    -0.58190
C69         C  0.46703730  0.87097003  0.10520926     0.75560
C70         C  0.35894322  0.97653431  0.15406134     0.77960
Cd71       Cd  0.36225355  0.87456162  0.12869484     1.37460
O72         O  0.34768926  0.86675689  0.04657533    -0.57030
O73         O  0.39996026  0.95304777  0.14696833    -0.55840
C74         C  0.36504988  0.80780804  0.20784436     0.77920
O75         O  0.31798392  0.95155275  0.15520072    -0.58220
O76         O  0.27938884  0.87924496  0.08636876    -0.56670
O77         O  0.44368925  0.91106671  0.11415955    -0.56660
O78         O  0.38124647  0.79401135  0.16821820    -0.55830
O79         O  0.65999112  0.08988422  0.05015651    -0.57040
C80         C  0.52699051  0.13153231  0.10242598     0.75590
O81         O  0.67619492  0.04870255  0.16139489    -0.58190
C82         C  0.70045569  0.11476302  0.04526506     0.75560
C83         C  0.63016294  0.18736240  0.20708056     0.77960
Cd84       Cd  0.63230612  0.12254620  0.12652326     1.37460
O85         O  0.55521151  0.16964556  0.09781039    -0.57030
O86         O  0.61387988  0.20240549  0.16756048    -0.55840
C87         C  0.63490511  0.02414100  0.16219176     0.77920
O88         O  0.65530120  0.14688308  0.20646132    -0.58220
O89         O  0.54890186  0.09063110  0.11131941    -0.56670
O90         O  0.70950839  0.14524656  0.07810195    -0.56660
O91         O  0.59414169  0.04744798  0.15340519    -0.55830
O92         O  0.67450269  0.83689662  0.06507883    -0.57040
C93         C  0.52245481  0.87057474  0.10588901     0.75590
O94         O  0.65416123  0.84735058  0.21197589    -0.58190
C95         C  0.69263481  0.87859597  0.05224858     0.75560
C96         C  0.63332340  0.97014889  0.16412121     0.77960
Cd97       Cd  0.62687463  0.87202268  0.13270840     1.37460
O98         O  0.54881966  0.83138653  0.10115074    -0.57030
O99         O  0.59113177  0.94878360  0.15655358    -0.55840
C100        C  0.62814247  0.80766631  0.21336436     0.77920
O101        O  0.67341866  0.94340682  0.16531223    -0.58220
O102        O  0.54575686  0.90965674  0.11707092    -0.56670
O103        O  0.68109635  0.91493084  0.07753605    -0.56660
O104        O  0.61036028  0.79350391  0.17458517    -0.55830
C105        C  0.38208074  0.21898625  0.25674607    -0.01710
C106        C  0.61673609  0.21504723  0.25273378    -0.01710
C107        C  0.22844471  0.60996089  0.24666541    -0.01710
C108        C  0.23220080  0.39062457  0.24987084    -0.01710
C109        C  0.61458985  0.77984747  0.25886047    -0.01710
C110        C  0.37953881  0.77956345  0.25283786    -0.01710
C111        C  0.76232924  0.38954849  0.24865129    -0.01710
C112        C  0.76507989  0.60908510  0.24728920    -0.01710
O113        O  0.44620067  0.17038281  0.40213595    -0.57040
C114        C  0.30283422  0.12079027  0.46072556     0.75590
O115        O  0.35923447  0.14214671  0.29839621    -0.58190
C116        C  0.47272310  0.13095273  0.40546971     0.75560
C117        C  0.36455598  0.02305448  0.35320327     0.77960
Cd118      Cd  0.36882334  0.12309561  0.38030192     1.37460
O119        O  0.35059569  0.12691867  0.46214499    -0.57030
O120        O  0.40628174  0.04557477  0.35915851    -0.55840
C121        C  0.37070943  0.18776585  0.30051373     0.77920
O122        O  0.32380336  0.04856409  0.35385332    -0.58160
O123        O  0.28344336  0.11957272  0.42006385    -0.56670
O124        O  0.44964071  0.08978197  0.40276071    -0.56660
O125        O  0.37415105  0.20558229  0.34138237    -0.55830
O126        O  0.35770057  0.85424342  0.29636639    -0.57040
C127        C  0.36416307  0.96919334  0.35280341     0.75590
O128        O  0.34279575  0.84840936  0.45819613    -0.58190
C129        C  0.36762785  0.80823906  0.29723406     0.75560
C130        C  0.46980412  0.86285558  0.40552854     0.77960
Cd131      Cd  0.36679945  0.86812134  0.37822371     1.37460
O132        O  0.32298011  0.94449318  0.35318417    -0.57030
O133        O  0.44581880  0.90348450  0.40159712    -0.55840
C134        C  0.30081553  0.87183591  0.45713040     0.77920
O135        O  0.44459676  0.82287590  0.40209515    -0.58220
O136        O  0.40561144  0.94564224  0.35842015    -0.56670
O137        O  0.36950239  0.78788258  0.33744666    -0.56660
O138        O  0.28524455  0.88500849  0.41695422    -0.55830
O139        O  0.65497071  0.10072119  0.45844733    -0.57040
C140        C  0.52820895  0.13120159  0.40555476     0.75590
O141        O  0.64403517  0.14053513  0.29656380    -0.58190
C142        C  0.70032436  0.11633658  0.45849373     0.75560
C143        C  0.63328400  0.02418821  0.34687537     0.77960
Cd144      Cd  0.63178141  0.12263587  0.37871512     1.37470
O145        O  0.55444746  0.17071392  0.40182330    -0.57030
O146        O  0.59215663  0.04772294  0.35333764    -0.55840
C147        C  0.62950289  0.18552433  0.29748005     0.77920
O148        O  0.67442825  0.04882577  0.34670856    -0.58220
O149        O  0.55165034  0.09019393  0.40328418    -0.56670
O150        O  0.71442133  0.13884669  0.42118728    -0.56660
O151        O  0.62334738  0.20389728  0.33797937    -0.55830
O152        O  0.67346094  0.94489851  0.35201009    -0.57040
C153        C  0.62695084  0.80853697  0.30345839     0.75590
O154        O  0.64387060  0.86998713  0.46843195    -0.58190
C155        C  0.63274088  0.97030182  0.34917130     0.75560
C156        C  0.52494937  0.86363947  0.40698480     0.77960
Cd157      Cd  0.62816376  0.87163440  0.38345866     1.37470
O158        O  0.64056279  0.85360670  0.30218816    -0.57030
O159        O  0.54781797  0.90507254  0.40540960    -0.55840
C160        C  0.69158577  0.87679735  0.46551821     0.77920
O161        O  0.55150633  0.82426627  0.40374645    -0.58220
O162        O  0.62200431  0.78944219  0.34409629    -0.56670
O163        O  0.59097808  0.94812250  0.35669132    -0.56660
O164        O  0.71049760  0.87584722  0.42445137    -0.55830
O165        O  0.15559838  0.40932303  0.29578900    -0.57040
C166        C  0.02448019  0.37105005  0.34343273     0.75590
O167        O  0.13470181  0.36029756  0.45567281    -0.58190
C168        C  0.19701153  0.38530209  0.29322684     0.75560
C169        C  0.13723823  0.47504591  0.41021199     0.77960
Cd170      Cd  0.12747117  0.37904989  0.37302056     1.37470
O171        O  0.05121770  0.33183286  0.34709112    -0.57030
O172        O  0.09475233  0.45304500  0.40749633    -0.55840
C173        C  0.12353714  0.31451479  0.45425172     0.77920
O174        O  0.17725017  0.44963484  0.40292816    -0.58220
O175        O  0.04732254  0.41220535  0.34677401    -0.56670
O176        O  0.20649140  0.35673373  0.32811733    -0.56660
O177        O  0.11954869  0.29634897  0.41343268    -0.55830
O178        O  0.94317135  0.33069300  0.34739299    -0.57040
C179        C  0.79691349  0.38380376  0.29199789     0.75590
O180        O  0.85102874  0.35744322  0.45381216    -0.58190
C181        C  0.96890215  0.37040173  0.34308640     0.75560
C182        C  0.86116247  0.47356704  0.40864556     0.77960
Cd183      Cd  0.86532755  0.37728717  0.37192892     1.37470
O184        O  0.83778508  0.40825456  0.29515406    -0.57030
O185        O  0.90244149  0.44937521  0.40573196    -0.55840
C186        C  0.86708285  0.31293532  0.45286271     0.77920
O187        O  0.81979858  0.45014182  0.40258008    -0.58220
O188        O  0.78734177  0.35467247  0.32642409    -0.56670
O189        O  0.94487984  0.41109688  0.34527111    -0.56660
O190        O  0.87487436  0.29534893  0.41227905    -0.55830
O191        O  0.05353033  0.67136616  0.33972910    -0.57040
C192        C  0.19449113  0.61642302  0.29096735     0.75590
O193        O  0.09307956  0.65246693  0.44932528    -0.58190
C194        C  0.02792970  0.63154788  0.33655948     0.75560
C195        C  0.13783634  0.52898597  0.41156840     0.77960
Cd196      Cd  0.12728634  0.62505410  0.37333014     1.37470
O197        O  0.15339141  0.59240140  0.29588040    -0.57030
O198        O  0.09582640  0.55189285  0.41079787    -0.55840
C199        C  0.11767226  0.69252899  0.45359707     0.77920
O200        O  0.17800779  0.55410709  0.40418975    -0.58220
O201        O  0.20490998  0.64582977  0.32454298    -0.56670
O202        O  0.05152921  0.59091796  0.34162691    -0.56660
O203        O  0.14905101  0.70208424  0.42036655    -0.55830
O204        O  0.84247076  0.59145084  0.29324083    -0.57040
C205        C  0.97253046  0.63077503  0.33688678     0.75590
O206        O  0.86503273  0.64638153  0.45514494    -0.58190
C207        C  0.80096274  0.61522048  0.29019121     0.75560
C208        C  0.86299396  0.52742493  0.40851097     0.77960
Cd209      Cd  0.87144978  0.62327975  0.37052239     1.37470
O210        O  0.94571236  0.67003060  0.33890781    -0.57030
O211        O  0.90569907  0.54871399  0.40356875    -0.55840
C212        C  0.87982771  0.69119678  0.45058988     0.77920
O213        O  0.82301546  0.55377451  0.40432081    -0.58220
O214        O  0.95015165  0.58965441  0.34330671    -0.56670
O215        O  0.79188611  0.64435336  0.32436172    -0.56660
O216        O  0.88706456  0.70491744  0.40842961    -0.55830
C217        C  0.27105922  0.88537792  0.00120012    -0.01710
C218        C  0.27069360  0.11527907  0.00535244    -0.01710
C219        C  0.87984642  0.28326876  0.99772660    -0.01710
C220        C  0.11425105  0.28335964  0.99896708    -0.01710
C221        C  0.88484122  0.72695013  0.99279018    -0.01710
C222        C  0.10855918  0.72644941  0.99643421    -0.01710
C223        C  0.72507988  0.88552039  0.00858598    -0.01710
C224        C  0.73493227  0.10839663  0.00167730    -0.01710
C225        C  0.76869742  0.02447412  0.04260415    -0.01070
C226        C  0.75363496  0.05207180  0.00176737     0.08610
C227        C  0.74489371  0.02195785  0.46253853    -0.01180
C228        C  0.72382398  0.97492635  0.46963387    -0.01190
C229        C  0.74372585  0.94303990  0.00565510     0.08740
C230        C  0.76887364  0.97056391  0.04259274    -0.01380
Br231      Br  0.79807393  0.93914788  0.09676985     0.00070
Br232      Br  0.79175782  0.05989940  0.09747531     0.00000
Br233      Br  0.65048947  0.98189840  0.46689716     0.00040
Br234      Br  0.77315006  0.03806617  0.40226906     0.00050
C235        C  0.79472908  0.76344363  0.47177568    -0.01070
C236        C  0.84536810  0.77113040  0.98947555     0.08610
C237        C  0.85172545  0.81519530  0.01695029    -0.01180
C238        C  0.80918789  0.84059674  0.03456747    -0.01190
C239        C  0.76517951  0.84187118  0.00710494     0.08740
C240        C  0.75471706  0.79546930  0.48468251    -0.01380
Br241      Br  0.68651996  0.76673236  0.48204339     0.00070
Br242      Br  0.77623610  0.71835494  0.42158509     0.00000
Br243      Br  0.79651047  0.81843882  0.09812641     0.00040
Br244      Br  0.91232321  0.85534563  0.01769374     0.00050
C245        C  0.02342166  0.75070901  0.03838736    -0.01070
C246        C  0.05114735  0.74341133  0.99588913     0.08610
C247        C  0.02374316  0.75423160  0.45366428    -0.01180
C248        C  0.96987629  0.75919492  0.45469800    -0.01190
C249        C  0.94195255  0.74509314  0.99554741     0.08740
C250        C  0.96945304  0.74894307  0.03865850    -0.01380
Br251      Br  0.93495059  0.76355596  0.09731269     0.00070
Br252      Br  0.05811101  0.77403245  0.09408644     0.00000
Br253      Br  0.93705179  0.79822981  0.40574256     0.00040
Br254      Br  0.05899322  0.77235964  0.39614833     0.00050
C255        C  0.86080909  0.18771299  0.51258884    -0.01070
C256        C  0.84423846  0.23635760  0.99988875     0.08610
C257        C  0.79005490  0.24281374  0.99487670    -0.01180
C258        C  0.75633504  0.20209652  0.99867729    -0.01190
C259        C  0.77512464  0.15182441  0.00128634     0.08740
C260        C  0.82914379  0.14587641  0.50503979    -0.01380
Br261      Br  0.86474613  0.08395483  0.49457624     0.00070
Br262      Br  0.92079574  0.17709185  0.55072326     0.00000
Br263      Br  0.68302513  0.21820925  0.99933573     0.00040
Br264      Br  0.75758930  0.30783298  0.98663656     0.00050
C265        C  0.97028845  0.24315721  0.47138742    -0.01070
C266        C  0.94091593  0.28026501  0.99543711     0.08610
C267        C  0.96972083  0.32375542  0.00701412    -0.01180
C268        C  0.02363146  0.32316161  0.00954384    -0.01190
C269        C  0.05331575  0.27962889  0.99805923     0.08740
C270        C  0.02526158  0.24220082  0.47359402    -0.01380
Br271      Br  0.06113681  0.19291262  0.43687817     0.00070
Br272      Br  0.93734016  0.19858076  0.42799149     0.00000
Br273      Br  0.05417139  0.38809794  0.02138128     0.00040
Br274      Br  0.93812011  0.38979910  0.00954338     0.00050
C275        C  0.20396846  0.24484354  0.48544513    -0.01070
C276        C  0.15167764  0.23709421  0.99900209     0.08610
C277        C  0.14217407  0.19202419  0.02480371    -0.01180
C278        C  0.17983523  0.15327803  0.02810180    -0.01190
C279        C  0.22687423  0.15611814  0.00259012     0.08740
C280        C  0.24016076  0.20576048  0.48676602    -0.01380
Br281      Br  0.31087782  0.22730225  0.47486468     0.00070
Br282      Br  0.23243334  0.31138146  0.47270040     0.00000
Br283      Br  0.17015784  0.10238740  0.07603487     0.00040
Br284      Br  0.08049888  0.18475976  0.06184236     0.00050
C285        C  0.23868473  0.79375167  0.00818394    -0.01070
C286        C  0.22716169  0.84585656  0.00013401     0.08610
C287        C  0.17847867  0.85561963  0.48116702    -0.01180
C288        C  0.13815748  0.82175910  0.48861488    -0.01190
C289        C  0.14885666  0.76971107  0.99628675     0.08740
C290        C  0.20143705  0.75663312  0.00145106    -0.01380
Br291      Br  0.22524658  0.68724118  0.99920425     0.00070
Br292      Br  0.30633319  0.76818431  0.02425986     0.00000
Br293      Br  0.07218923  0.85407295  0.49130817     0.00040
Br294      Br  0.16856390  0.90610008  0.43307829     0.00050
C295        C  0.22046027  0.97405342  0.00891773    -0.01070
C296        C  0.26566126  0.94515116  0.00129948     0.08610
C297        C  0.31147453  0.97466880  0.99976961    -0.01180
C298        C  0.31105449  0.02584080  0.01143163    -0.01190
C299        C  0.26522861  0.05564138  0.00766311     0.08740
C300        C  0.22020405  0.02683908  0.50063088    -0.01380
Br301      Br  0.16160988  0.05332014  0.46838929     0.00070
Br302      Br  0.16431557  0.94876695  0.54552397     0.00000
Br303      Br  0.37697436  0.05141891  0.03171147     0.00040
Br304      Br  0.37853850  0.94835645  0.98319156     0.00050
C305        C  0.73689115  0.47317883  0.20492188    -0.01070
C306        C  0.74277353  0.44550314  0.24758505     0.08610
C307        C  0.73364899  0.47291692  0.28949973    -0.01180
C308        C  0.73557381  0.52587667  0.28935491    -0.01190
C309        C  0.74587690  0.55312207  0.24707963     0.08740
C310        C  0.73804886  0.52612278  0.20468720    -0.01380
Br311      Br  0.71783862  0.56074176  0.14768096     0.00070
Br312      Br  0.71747902  0.43952832  0.14784018     0.00000
Br313      Br  0.71561339  0.56044369  0.34589810     0.00040
Br314      Br  0.71059904  0.43883206  0.34587626     0.00050
C315        C  0.74029897  0.70174952  0.25309503    -0.01070
C316        C  0.72318854  0.65135586  0.24864452     0.08610
C317        C  0.66909270  0.64457450  0.24344299    -0.01180
C318        C  0.63606339  0.68635576  0.23957129    -0.01190
C319        C  0.65124044  0.73366527  0.25608588     0.08740
C320        C  0.70540249  0.74084865  0.26106804    -0.01380
Br321      Br  0.73652929  0.80511616  0.27467133     0.00070
Br322      Br  0.81278190  0.72031245  0.24821539     0.00000
Br323      Br  0.57554763  0.67908639  0.20138611     0.00040
Br324      Br  0.63446305  0.58107820  0.24259112     0.00050
C325        C  0.46882751  0.73918146  0.28153882    -0.01070
C326        C  0.44077457  0.77636543  0.25551318     0.08610
C327        C  0.47038715  0.82017207  0.24440686    -0.01180
C328        C  0.52433427  0.82083645  0.24813059    -0.01190
C329        C  0.55335522  0.77715826  0.26041895     0.08740
C330        C  0.52386887  0.73947230  0.28369018    -0.01380
Br331      Br  0.55741344  0.69228679  0.32511846     0.00070
Br332      Br  0.43318292  0.69130864  0.32072752     0.00000
Br333      Br  0.55557651  0.88691546  0.24515244     0.00040
Br334      Br  0.43955802  0.88537203  0.23179506     0.00050
C335        C  0.25347688  0.70249634  0.25062233    -0.01070
C336        C  0.27041340  0.65199755  0.24586337     0.08610
C337        C  0.32437048  0.64485143  0.23882323    -0.01180
C338        C  0.35743748  0.68641121  0.23419646    -0.01190
C339        C  0.34260907  0.73380760  0.25087700     0.08740
C340        C  0.28860159  0.74143824  0.25724525    -0.01380
Br341      Br  0.25803900  0.80602374  0.27177309     0.00070
Br342      Br  0.18088963  0.72137292  0.24843328     0.00000
Br343      Br  0.41876421  0.67867233  0.19673991     0.00040
Br344      Br  0.35886624  0.58111406  0.23673426     0.00050
C345        C  0.25954686  0.52726080  0.28840040    -0.01070
C346        C  0.24773880  0.55407183  0.24625244     0.08610
C347        C  0.25409532  0.52672278  0.20386242    -0.01180
C348        C  0.25559060  0.47383941  0.20459173    -0.01190
C349        C  0.25064273  0.44667050  0.24771842     0.08740
C350        C  0.26087420  0.47433114  0.28911686    -0.01380
Br351      Br  0.28445193  0.44048295  0.34535217     0.00070
Br352      Br  0.28259615  0.56228053  0.34348436     0.00000
Br353      Br  0.27496013  0.43984565  0.14745815     0.00040
Br354      Br  0.27200258  0.56085477  0.14586580     0.00050
C355        C  0.63646019  0.30964555  0.23508981    -0.01070
C356        C  0.65261158  0.26169663  0.25024827     0.08610
C357        C  0.70662748  0.25525566  0.25625433    -0.01180
C358        C  0.74045081  0.29591355  0.25291576    -0.01190
C359        C  0.72182909  0.34617050  0.24888580     0.08740
C360        C  0.66801117  0.35195553  0.24134942    -0.01380
Br361      Br  0.63224369  0.41501941  0.24109359     0.00070
Br362      Br  0.57606579  0.31771852  0.19673071     0.00000
Br363      Br  0.81374919  0.27948980  0.25320414     0.00040
Br364      Br  0.73876127  0.19007927  0.26463986     0.00050
C365        C  0.29190997  0.25856097  0.26376338    -0.01070
C366        C  0.34586985  0.26561589  0.25659343     0.08610
C367        C  0.36075783  0.31327138  0.23957929    -0.01180
C368        C  0.32783970  0.35507713  0.24394739    -0.01190
C369        C  0.27403110  0.34832845  0.25133557     0.08740
C370        C  0.25692005  0.29797177  0.25727694    -0.01380
Br371      Br  0.18419140  0.27969064  0.25555408     0.00070
Br372      Br  0.26095512  0.19392203  0.27796820     0.00000
Br373      Br  0.36173654  0.41888061  0.23990918     0.00040
Br374      Br  0.42136450  0.32128266  0.20109484     0.00050
C375        C  0.47276353  0.25670603  0.28258859    -0.01070
C376        C  0.44324646  0.22080373  0.25760291     0.08610
C377        C  0.47179407  0.17710620  0.24441948    -0.01180
C378        C  0.52585494  0.17591035  0.24483569    -0.01190
C379        C  0.55572504  0.21887626  0.25608081     0.08740
C380        C  0.52778365  0.25596340  0.28168014    -0.01380
Br381      Br  0.56315061  0.30178797  0.32223725     0.00070
Br382      Br  0.43918427  0.30296638  0.32435148     0.00000
Br383      Br  0.55643732  0.10964133  0.23985785     0.00040
Br384      Br  0.43962908  0.11268262  0.23327098     0.00050
O385        O  0.05279219  0.32852678  0.65191493    -0.57040
C386        C  0.19748423  0.38174551  0.70721514     0.75590
O387        O  0.15627225  0.34947110  0.54490648    -0.58190
C388        C  0.02578048  0.36781102  0.64982290     0.75560
C389        C  0.13406125  0.47431387  0.59001901     0.77960
Cd390      Cd  0.13144541  0.37498189  0.62513761     1.37470
O391        O  0.15682112  0.40629116  0.70191825    -0.57030
O392        O  0.09371296  0.45158159  0.60108056    -0.55840
C393        C  0.12943578  0.31014252  0.54446916     0.77920
O394        O  0.17489037  0.44893842  0.58825372    -0.58220
O395        O  0.20722959  0.35071406  0.67489879    -0.56670
O396        O  0.04891912  0.40826486  0.64239970    -0.56660
O397        O  0.11198368  0.29621930  0.58399216    -0.55830
O398        O  0.84097523  0.35103185  0.54428079    -0.57040
C399        C  0.85807669  0.47413054  0.58749239     0.75590
O400        O  0.83804723  0.40713281  0.70102460    -0.58190
C401        C  0.86614779  0.31061097  0.54349797     0.75560
C402        C  0.96996895  0.36805463  0.64937250     0.77960
Cd403      Cd  0.86464420  0.37550249  0.62406704     1.37460
O404        O  0.81789980  0.44806231  0.58930994    -0.57030
O405        O  0.94705344  0.40859621  0.64112905    -0.55840
C406        C  0.79773413  0.38204700  0.70593785     0.77920
O407        O  0.94286876  0.32901397  0.65165243    -0.58220
O408        O  0.89985027  0.45220151  0.59558929    -0.56670
O409        O  0.88282037  0.29561567  0.58290872    -0.56660
O410        O  0.78895105  0.35119989  0.67332737    -0.55830
O411        O  0.17213562  0.55530244  0.58961624    -0.57040
C412        C  0.11609185  0.69233659  0.54030371     0.75590
O413        O  0.04738009  0.67452460  0.65430848    -0.58190
C414        C  0.13251534  0.52844174  0.58829361     0.75560
C415        C  0.19238761  0.61787550  0.70412502     0.77960
Cd416      Cd  0.12237199  0.62610649  0.62330058     1.37470
O417        O  0.09205677  0.65178888  0.54453152    -0.57030
O418        O  0.20098077  0.64848342  0.67053191    -0.55840
C419        C  0.02130003  0.63507358  0.65895983     0.77920
O420        O  0.15161634  0.59326179  0.70037506    -0.58220
O421        O  0.14529948  0.70250839  0.57460941    -0.56670
O422        O  0.09011962  0.54982280  0.59407741    -0.56660
O423        O  0.04491835  0.59430193  0.65592218    -0.55830
O424        O  0.81698132  0.55389989  0.58886464    -0.57040
C425        C  0.87345834  0.69379590  0.53649602     0.75590
O426        O  0.83931178  0.59234878  0.69722331    -0.58190
C427        C  0.85749659  0.52831651  0.58524634     0.75560
C428        C  0.96562920  0.63429245  0.65762005     0.77960
Cd429      Cd  0.86548081  0.62650332  0.61976385     1.37470
O430        O  0.90157859  0.65653668  0.54512960    -0.57030
O431        O  0.94398763  0.59360318  0.64897692    -0.55840
C432        C  0.79900116  0.61739113  0.70321500     0.77920
O433        O  0.93797205  0.67306637  0.65685603    -0.58220
O434        O  0.83776145  0.70088513  0.56620783    -0.56670
O435        O  0.89923341  0.55116423  0.58828155    -0.56660
O436        O  0.78893516  0.64860876  0.67043187    -0.55830
O437        O  0.31988067  0.05702863  0.65650200    -0.57040
C438        C  0.36677229  0.19417400  0.71093029     0.75590
O439        O  0.44573824  0.17363757  0.59969087    -0.58190
C440        C  0.35991012  0.03061325  0.65408661     0.75560
C441        C  0.29939554  0.13060207  0.54955069     0.77960
Cd442      Cd  0.36526666  0.13324276  0.62937408     1.37470
O443        O  0.34056611  0.15474747  0.70946539    -0.57030
O444        O  0.28400593  0.11740307  0.58973421    -0.55840
C445        C  0.47125160  0.13363739  0.60399457     0.77920
O446        O  0.34122064  0.15413598  0.54861946    -0.58220
O447        O  0.38274096  0.21058521  0.67187675    -0.56670
O448        O  0.40148513  0.05276863  0.64571050    -0.56660
O449        O  0.44681669  0.09476634  0.61518121    -0.55830
O450        O  0.44066156  0.83162713  0.60168001    -0.57040
C451        C  0.30047685  0.87620479  0.54646555     0.75590
O452        O  0.33894934  0.84761896  0.70784298    -0.58190
C453        C  0.46703684  0.87096656  0.60521235     0.75560
C454        C  0.35894347  0.97652962  0.65406423     0.77960
Cd455      Cd  0.36225296  0.87455822  0.62869598     1.37460
O456        O  0.34769012  0.86675662  0.54657579    -0.57030
O457        O  0.39996030  0.95304293  0.64697077    -0.55840
C458        C  0.36504797  0.80780474  0.70784541     0.77920
O459        O  0.31798387  0.95154853  0.65520343    -0.58220
O460        O  0.27938937  0.87924518  0.58636860    -0.56670
O461        O  0.44368854  0.91106303  0.61416285    -0.56660
O462        O  0.38124489  0.79400781  0.66821941    -0.55830
O463        O  0.65999262  0.08987807  0.55015747    -0.57040
C464        C  0.52699328  0.13152593  0.60242959     0.75590
O465        O  0.67619979  0.04869954  0.66139794    -0.58190
C466        C  0.70045760  0.11475620  0.54526561     0.75560
C467        C  0.63016553  0.18736202  0.70707988     0.77960
Cd468      Cd  0.63230942  0.12254195  0.62652494     1.37460
O469        O  0.55521387  0.16963923  0.59781203    -0.57030
O470        O  0.61388250  0.20240333  0.66755920    -0.55840
C471        C  0.63490987  0.02413822  0.66219656     0.77920
O472        O  0.65530433  0.14688296  0.70646207    -0.58220
O473        O  0.54890514  0.09062514  0.61132370    -0.56670
O474        O  0.70951094  0.14523990  0.57810225    -0.56660
O475        O  0.59414631  0.04744511  0.65341049    -0.55830
O476        O  0.67451627  0.83689231  0.56509459    -0.57040
C477        C  0.52245425  0.87057177  0.60589293     0.75590
O478        O  0.65416191  0.84734817  0.71197882    -0.58190
C479        C  0.69263086  0.87859388  0.55224956     0.75560
C480        C  0.63332759  0.97014624  0.66412676     0.77960
Cd481      Cd  0.62687391  0.87202192  0.63271183     1.37460
O482        O  0.54881989  0.83138423  0.60115339    -0.57030
O483        O  0.59113503  0.94878190  0.65656130    -0.55840
C484        C  0.62814083  0.80766520  0.71336761     0.77920
O485        O  0.67342246  0.94340342  0.66531555    -0.58220
O486        O  0.54575537  0.90965369  0.61707650    -0.56670
O487        O  0.68107396  0.91493473  0.57752270    -0.56660
O488        O  0.61035645  0.79350411  0.67458877    -0.55830
C489        C  0.38208253  0.21898401  0.75674775    -0.01710
C490        C  0.61673791  0.21504832  0.75273225    -0.01710
C491        C  0.22844207  0.60995835  0.74666442    -0.01710
C492        C  0.23220304  0.39062180  0.74986651    -0.01710
C493        C  0.61458767  0.77984685  0.75886392    -0.01710
C494        C  0.37953647  0.77956039  0.75283921    -0.01710
C495        C  0.76233331  0.38954838  0.74864987    -0.01710
C496        C  0.76508016  0.60908577  0.74728937    -0.01710
O497        O  0.44619554  0.17038042  0.90213779    -0.57040
C498        C  0.30283000  0.12078077  0.96072257     0.75590
O499        O  0.35923437  0.14214463  0.79839694    -0.58190
C500        C  0.47272009  0.13095161  0.90547030     0.75560
C501        C  0.36455435  0.02305072  0.85319855     0.77960
Cd502      Cd  0.36882154  0.12309015  0.88030081     1.37460
O503        O  0.35059224  0.12690352  0.96214341    -0.57030
O504        O  0.40628042  0.04557094  0.85915254    -0.55840
C505        C  0.37071023  0.18776352  0.80051523     0.77920
O506        O  0.32380173  0.04856018  0.85385029    -0.58160
O507        O  0.28343977  0.11956770  0.92006039    -0.56670
O508        O  0.44964000  0.08977966  0.90275990    -0.56660
O509        O  0.37415119  0.20557929  0.84138419    -0.55830
O510        O  0.35769578  0.85423971  0.79636742    -0.57040
C511        C  0.36416098  0.96918969  0.85279936     0.75590
O512        O  0.34279450  0.84840821  0.95819642    -0.58190
C513        C  0.36762507  0.80823581  0.79723533     0.75560
C514        C  0.46980152  0.86285686  0.90553024     0.77960
Cd515      Cd  0.36679735  0.86811916  0.87822376     1.37460
O516        O  0.32297760  0.94449019  0.85318438    -0.57030
O517        O  0.44581496  0.90348504  0.90159845    -0.55840
C518        C  0.30081406  0.87183432  0.95713061     0.77920
O519        O  0.44459560  0.82287637  0.90209625    -0.58220
O520        O  0.40560954  0.94563824  0.85841354    -0.56670
O521        O  0.36950159  0.78787980  0.83744806    -0.56660
O522        O  0.28524289  0.88500663  0.91695442    -0.55830
O523        O  0.65496916  0.10072720  0.95844705    -0.57040
C524        C  0.52820593  0.13120339  0.90555543     0.75590
O525        O  0.64403591  0.14053760  0.79656458    -0.58190
C526        C  0.70032216  0.11634427  0.95849361     0.75560
C527        C  0.63327960  0.02419241  0.84687644     0.77960
Cd528      Cd  0.63177875  0.12264059  0.87871554     1.37470
O529        O  0.55444240  0.17071684  0.90182157    -0.57030
O530        O  0.59215263  0.04772766  0.85333892    -0.55840
C531        C  0.62950341  0.18552675  0.79747944     0.77920
O532        O  0.67442411  0.04882956  0.84670913    -0.58220
O533        O  0.55164942  0.09019678  0.90328695    -0.56670
O534        O  0.71441845  0.13885492  0.92118729    -0.56660
O535        O  0.62334569  0.20390064  0.83797812    -0.55830
O536        O  0.67345597  0.94490235  0.85200924    -0.57040
C537        C  0.62694775  0.80853796  0.80346130     0.75590
O538        O  0.64387137  0.86998736  0.96843392    -0.58190
C539        C  0.63273600  0.97030600  0.84917260     0.75560
C540        C  0.52494665  0.86364238  0.90698719     0.77960
Cd541      Cd  0.62816053  0.87163858  0.88346037     1.37470
O542        O  0.64055852  0.85360804  0.80218998    -0.57030
O543        O  0.54781417  0.90507601  0.90541105    -0.55840
C544        C  0.69158550  0.87680408  0.96551838     0.77920
O545        O  0.55150461  0.82426973  0.90375008    -0.58220
O546        O  0.62200188  0.78944439  0.84409972    -0.56670
O547        O  0.59097340  0.94812699  0.85669469    -0.56660
O548        O  0.71049483  0.87585999  0.92445043    -0.55830
O549        O  0.15560125  0.40931853  0.79578667    -0.57040
C550        C  0.02448628  0.37104523  0.84343586     0.75590
O551        O  0.13471804  0.36029598  0.95567425    -0.58190
C552        C  0.19701451  0.38529805  0.79322301     0.75560
C553        C  0.13724313  0.47504182  0.91021082     0.77960
Cd554      Cd  0.12747903  0.37904508  0.87302083     1.37470
O555        O  0.05122322  0.33182774  0.84709560    -0.57030
O556        O  0.09475823  0.45303887  0.90749701    -0.55840
C557        C  0.12354850  0.31451429  0.95425587     0.77920
O558        O  0.17725602  0.44963275  0.90292524    -0.58220
O559        O  0.04732940  0.41220021  0.84677590    -0.56670
O560        O  0.20649594  0.35672954  0.82811309    -0.56660
O561        O  0.11955813  0.29634658  0.91343774    -0.55830
O562        O  0.94317635  0.33068997  0.84739589    -0.57040
C563        C  0.79691776  0.38380376  0.79199654     0.75590
O564        O  0.85103495  0.35744735  0.95381196    -0.58190
C565        C  0.96890809  0.37039803  0.84308845     0.75560
C566        C  0.86116436  0.47356407  0.90864806     0.77960
Cd567      Cd  0.86533244  0.37728646  0.87192783     1.37470
O568        O  0.83778899  0.40825519  0.79515306    -0.57030
O569        O  0.90244482  0.44937519  0.90573016    -0.55840
C570        C  0.86708638  0.31293860  0.95286350     0.77920
O571        O  0.81980151  0.45013703  0.90258294    -0.58220
O572        O  0.78734667  0.35467184  0.82642242    -0.56670
O573        O  0.94488638  0.41109377  0.84527060    -0.56660
O574        O  0.87487571  0.29535007  0.91228027    -0.55830
O575        O  0.05352305  0.67135854  0.83973081    -0.57040
C576        C  0.19448753  0.61641976  0.79096600     0.75590
O577        O  0.09307977  0.65246254  0.94932622    -0.58190
C578        C  0.02792250  0.63153962  0.83656610     0.75560
C579        C  0.13783853  0.52898181  0.91156736     0.77960
Cd580      Cd  0.12728289  0.62504956  0.87332983     1.37470
O581        O  0.15338735  0.59239860  0.79587821    -0.57030
O582        O  0.09582746  0.55188670  0.91079799    -0.55840
C583        C  0.11767225  0.69252483  0.95359687     0.77920
O584        O  0.17800847  0.55410485  0.90418786    -0.58220
O585        O  0.20490604  0.64582583  0.82454217    -0.56670
O586        O  0.05152306  0.59091038  0.84163446    -0.56660
O587        O  0.14904947  0.70208014  0.92036519    -0.55830
O588        O  0.84246735  0.59144949  0.79324568    -0.57040
C589        C  0.97252305  0.63076601  0.83689689     0.75590
O590        O  0.86496919  0.64640065  0.95514794    -0.58190
C591        C  0.80096106  0.61522135  0.79019276     0.75560
C592        C  0.86299216  0.52742173  0.90851798     0.77960
Cd593      Cd  0.87144104  0.62327650  0.87053049     1.37470
O594        O  0.94570408  0.67002178  0.83890943    -0.57030
O595        O  0.90569581  0.54871419  0.90357893    -0.55840
C596        C  0.87982081  0.69119852  0.95059507     0.77920
O597        O  0.82301186  0.55376835  0.90432740    -0.58220
O598        O  0.95014526  0.58964621  0.84332662    -0.56670
O599        O  0.79188368  0.64435540  0.82436213    -0.56660
O600        O  0.88711259  0.70490020  0.90843792    -0.55830
C601        C  0.27106097  0.88538011  0.50119998    -0.01710
C602        C  0.27069903  0.11528251  0.50535624    -0.01710
C603        C  0.87984429  0.28326467  0.49772533    -0.01710
C604        C  0.11424834  0.28335629  0.49896113    -0.01710
C605        C  0.88484080  0.72694340  0.49278903    -0.01710
C606        C  0.10855789  0.72645333  0.49643451    -0.01710
C607        C  0.72507759  0.88551421  0.50858687    -0.01710
C608        C  0.73493417  0.10838929  0.50167777    -0.01710
C609        C  0.76869681  0.02446649  0.54260597    -0.01070
C610        C  0.75363763  0.05206449  0.50176825     0.08610
C611        C  0.74488851  0.02196520  0.96253822    -0.01180
C612        C  0.72382007  0.97493344  0.96963498    -0.01190
C613        C  0.74372618  0.94303268  0.50565549     0.08740
C614        C  0.76887029  0.97055626  0.54259539    -0.01380
Br615      Br  0.79805688  0.93913918  0.59677835     0.00070
Br616      Br  0.79175684  0.05989130  0.59747753     0.00000
Br617      Br  0.65048513  0.98190279  0.96690109     0.00040
Br618      Br  0.77314502  0.03807208  0.90226845     0.00050
C619        C  0.79475428  0.76348084  0.97173757    -0.01070
C620        C  0.84535512  0.77111354  0.48948079     0.08610
C621        C  0.85172206  0.81519700  0.51692886    -0.01180
C622        C  0.80919029  0.84059783  0.53455660    -0.01190
C623        C  0.76517339  0.84186221  0.50710700     0.08740
C624        C  0.75473636  0.79549062  0.98465525    -0.01380
Br625      Br  0.68655084  0.76673188  0.98200698     0.00070
Br626      Br  0.77629485  0.71847781  0.92146984     0.00000
Br627      Br  0.79653106  0.81843065  0.59811625     0.00040
Br628      Br  0.91232371  0.85534218  0.51766805     0.00050
C629        C  0.02341854  0.75071288  0.53838610    -0.01070
C630        C  0.05114556  0.74341475  0.49588856     0.08610
C631        C  0.02374445  0.75423081  0.95366559    -0.01180
C632        C  0.96987813  0.75919798  0.95470126    -0.01190
C633        C  0.94194988  0.74509402  0.49554524     0.08740
C634        C  0.96944972  0.74894679  0.53865621    -0.01380
Br635      Br  0.93494420  0.76356243  0.59730801     0.00070
Br636      Br  0.05810640  0.77403538  0.59408611     0.00000
Br637      Br  0.93705269  0.79823833  0.90574984     0.00040
Br638      Br  0.05899288  0.77235653  0.89614836     0.00050
C639        C  0.86080889  0.18771747  0.01258866    -0.01070
C640        C  0.84423742  0.23635271  0.49988841     0.08610
C641        C  0.79005376  0.24280768  0.49487728    -0.01180
C642        C  0.75633493  0.20208961  0.49867732    -0.01190
C643        C  0.77512572  0.15181784  0.50128667     0.08740
C644        C  0.82914268  0.14588183  0.00503871    -0.01380
Br645      Br  0.86474401  0.08396053  0.99457131     0.00070
Br646      Br  0.92079510  0.17709441  0.05072309     0.00000
Br647      Br  0.68302459  0.21820081  0.49933503     0.00040
Br648      Br  0.75758676  0.30782658  0.48664037     0.00050
C649        C  0.97029113  0.24316141  0.97138965    -0.01070
C650        C  0.94091352  0.28026079  0.49543491     0.08610
C651        C  0.96971844  0.32375057  0.50701287    -0.01180
C652        C  0.02362865  0.32315540  0.50954644    -0.01190
C653        C  0.05331315  0.27962380  0.49805820     0.08740
C654        C  0.02526433  0.24220503  0.97359629    -0.01380
Br655      Br  0.06113985  0.19291692  0.93688061     0.00070
Br656      Br  0.93734326  0.19858493  0.92799350     0.00000
Br657      Br  0.05416759  0.38808938  0.52139586     0.00040
Br658      Br  0.93811884  0.38979506  0.50953619     0.00050
C659        C  0.20397060  0.24484694  0.98546109    -0.01070
C660        C  0.15167627  0.23709145  0.49899224     0.08610
C661        C  0.14217594  0.19202461  0.52480112    -0.01180
C662        C  0.17983792  0.15327953  0.52810306    -0.01190
C663        C  0.22687889  0.15612091  0.50259574     0.08740
C664        C  0.24015680  0.20575797  0.98675910    -0.01380
Br665      Br  0.31086824  0.22729229  0.97481507     0.00070
Br666      Br  0.23244288  0.31139180  0.97276645     0.00000
Br667      Br  0.17015964  0.10238946  0.57603651     0.00040
Br668      Br  0.08050157  0.18476118  0.56184133     0.00050
C669        C  0.23868473  0.79375433  0.50818383    -0.01070
C670        C  0.22716247  0.84585941  0.50013389     0.08610
C671        C  0.17847820  0.85561601  0.98116627    -0.01180
C672        C  0.13815748  0.82175533  0.98861431    -0.01190
C673        C  0.14885593  0.76971478  0.49628774     0.08740
C674        C  0.20143625  0.75663624  0.50145214    -0.01380
Br675      Br  0.22524500  0.68724387  0.49920650     0.00070
Br676      Br  0.30633337  0.76818589  0.52425798     0.00000
Br677      Br  0.07218947  0.85406963  0.99130927     0.00040
Br678      Br  0.16856308  0.90609543  0.93307664     0.00050
C679        C  0.22046488  0.97405706  0.50891828    -0.01070
C680        C  0.26566496  0.94515373  0.50129936     0.08610
C681        C  0.31147904  0.97467040  0.49976827    -0.01180
C682        C  0.31106057  0.02584334  0.51142788    -0.01190
C683        C  0.26523460  0.05564443  0.50766228     0.08740
C684        C  0.22019870  0.02683543  0.00063019    -0.01380
Br685      Br  0.16160419  0.05331609  0.96838879     0.00070
Br686      Br  0.16431090  0.94876240  0.04552278     0.00000
Br687      Br  0.37698278  0.05142176  0.53170171     0.00040
Br688      Br  0.37854252  0.94835472  0.48319264     0.00050
C689        C  0.73689564  0.47317921  0.70492049    -0.01070
C690        C  0.74277771  0.44550316  0.74758354     0.08610
C691        C  0.73365149  0.47291635  0.78949830    -0.01180
C692        C  0.73557479  0.52587619  0.78935401    -0.01190
C693        C  0.74587778  0.55312240  0.74707916     0.08740
C694        C  0.73805149  0.52612325  0.70468637    -0.01380
Br695      Br  0.71784161  0.56074244  0.64768008     0.00070
Br696      Br  0.71748540  0.43952903  0.64783809     0.00000
Br697      Br  0.71561264  0.56044209  0.84589732     0.00040
Br698      Br  0.71060161  0.43883033  0.84587422     0.00050
C699        C  0.74029751  0.70174989  0.75309603    -0.01070
C700        C  0.72318805  0.65135616  0.74864401     0.08610
C701        C  0.66909218  0.64457428  0.74344319    -0.01180
C702        C  0.63606207  0.68635529  0.73957358    -0.01190
C703        C  0.65123851  0.73366450  0.75608990     0.08740
C704        C  0.70540055  0.74084792  0.76107259    -0.01380
Br705      Br  0.73652694  0.80511394  0.77468239     0.00070
Br706      Br  0.81277979  0.72031413  0.74821479     0.00000
Br707      Br  0.57554560  0.67908602  0.70138931     0.00040
Br708      Br  0.63446380  0.58107737  0.74258896     0.00050
C709        C  0.46882546  0.73917918  0.78154089    -0.01070
C710        C  0.44077228  0.77636286  0.75551510     0.08610
C711        C  0.47038441  0.82016991  0.74440926    -0.01180
C712        C  0.52433158  0.82083473  0.74813255    -0.01190
C713        C  0.55335297  0.77715712  0.76042186     0.08740
C714        C  0.52386681  0.73947104  0.78369312    -0.01380
Br715      Br  0.55741170  0.69228660  0.82512222     0.00070
Br716      Br  0.43318104  0.69130541  0.82072867     0.00000
Br717      Br  0.55557346  0.88691370  0.74515165     0.00040
Br718      Br  0.43955434  0.88536987  0.73179945     0.00050
C719        C  0.25347443  0.70249357  0.75062294    -0.01070
C720        C  0.27041093  0.65199483  0.74586362     0.08610
C721        C  0.32436809  0.64484868  0.73882372    -0.01180
C722        C  0.35743521  0.68640840  0.73419756    -0.01190
C723        C  0.34260672  0.73380464  0.75087824     0.08740
C724        C  0.28859915  0.74143538  0.75724608    -0.01380
Br725      Br  0.25803633  0.80602098  0.77177324     0.00070
Br726      Br  0.18088713  0.72137025  0.74843368     0.00000
Br727      Br  0.41876232  0.67866986  0.69674146     0.00040
Br728      Br  0.35886400  0.58111139  0.73673414     0.00050
C729        C  0.25954529  0.52725793  0.78839819    -0.01070
C730        C  0.24773638  0.55406938  0.74625066     0.08610
C731        C  0.25409407  0.52672132  0.70386018    -0.01180
C732        C  0.25559105  0.47383799  0.70458858    -0.01190
C733        C  0.25064422  0.44666807  0.74771483     0.08740
C734        C  0.26087491  0.47432829  0.78911365    -0.01380
Br735      Br  0.28445497  0.44047980  0.84534793     0.00070
Br736      Br  0.28259329  0.56227737  0.84348273     0.00000
Br737      Br  0.27496173  0.43984609  0.64745430     0.00040
Br738      Br  0.27200156  0.56085479  0.64586435     0.00050
C739        C  0.63646349  0.30964615  0.73508697    -0.01070
C740        C  0.65261401  0.26169738  0.75024651     0.08610
C741        C  0.70662976  0.25525605  0.75625361    -0.01180
C742        C  0.74045362  0.29591357  0.75291493    -0.01190
C743        C  0.72183255  0.34617069  0.74888434     0.08740
C744        C  0.66801478  0.35195602  0.74134661    -0.01380
Br745      Br  0.63224776  0.41502014  0.74108869     0.00070
Br746      Br  0.57606953  0.31771863  0.69672718     0.00000
Br747      Br  0.81375179  0.27948893  0.75320345     0.00040
Br748      Br  0.73876278  0.19007959  0.76464101     0.00050
C749        C  0.29191177  0.25855901  0.76376214    -0.01070
C750        C  0.34587186  0.26561374  0.75659343     0.08610
C751        C  0.36076023  0.31326870  0.73957790    -0.01180
C752        C  0.32784200  0.35507459  0.74394409    -0.01190
C753        C  0.27403336  0.34832592  0.75133116     0.08740
C754        C  0.25692213  0.29796934  0.75727255    -0.01380
Br755      Br  0.18419362  0.27968800  0.75554630     0.00070
Br756      Br  0.26095619  0.19392110  0.77796976     0.00000
Br757      Br  0.36173821  0.41887823  0.73990382     0.00040
Br758      Br  0.42136708  0.32127886  0.70109350     0.00050
C759        C  0.47276503  0.25670553  0.78258843    -0.01070
C760        C  0.44324813  0.22080187  0.75760456     0.08610
C761        C  0.47179615  0.17710463  0.74442142    -0.01180
C762        C  0.52585706  0.17591021  0.74483560    -0.01190
C763        C  0.55572673  0.21887714  0.75607896     0.08740
C764        C  0.52778513  0.25596453  0.78167801    -0.01380
Br765      Br  0.56315180  0.30179205  0.82223238     0.00070
Br766      Br  0.43918549  0.30296537  0.82435162     0.00000
Br767      Br  0.55644022  0.10964161  0.73985754     0.00040
Br768      Br  0.43963173  0.11268002  0.73327593     0.00050
loop_ 
_geom_bond_atom_site_label_1 
_geom_bond_atom_site_label_2 
_geom_bond_distance 
_geom_bond_site_symmetry_2 
_ccdc_geom_bond_type 
O1            C4   1.269       .  A
O1           Cd6   2.523       .  S
C2           O11   1.272       .  A
C2            O7   1.259       .  A
C2          C108   1.540       .  S
O3            C9   1.270       .  A
O3           Cd6   2.475       .  S
C4           O12   1.261       .  A
C4           C18   1.462   1_455  S
C5           O10   1.267       .  A
C5            O8   1.259       .  A
C5           C30   1.454       .  S
Cd6          O13   2.482       .  S
Cd6          O12   2.387       .  S
Cd6          O11   2.522       .  S
Cd6           O7   2.444       .  S
Cd6          O10   2.510       .  S
Cd6           O8   2.374       .  S
C9           O13   1.266       .  A
C9          C220   1.542   1_554  S
O14          C17   1.268       .  A
O14         Cd19   2.453       .  S
C15          O24   1.262       .  A
C15          O20   1.266       .  A
C15          C43   1.455       .  S
O16          C22   1.260       .  A
O16         Cd19   2.455       .  S
C17          O25   1.267       .  A
C17         C219   1.543   1_554  S
C18          O23   1.268       .  A
C18          O21   1.262       .  A
Cd19         O26   2.508       .  S
Cd19         O25   2.497       .  S
Cd19         O24   2.391       .  S
Cd19         O20   2.495       .  S
Cd19         O23   2.519       .  S
Cd19         O21   2.389       .  S
C22          O26   1.272       .  A
C22         C111   1.541       .  S
O27          C30   1.266       .  A
O27         Cd32   2.498       .  S
C28          O37   1.275       .  A
C28          O33   1.263       .  A
C28         C222   1.554   1_554  S
O29          C35   1.267       .  A
O29         Cd32   2.514       .  S
C30          O38   1.259       .  A
C31          O36   1.262       .  A
C31          O34   1.275       .  A
C31         C107   1.551       .  S
Cd32         O39   2.385       .  S
Cd32         O38   2.376       .  S
Cd32         O37   2.536       .  S
Cd32         O33   2.472       .  S
Cd32         O36   2.479       .  S
Cd32         O34   2.539       .  S
C35          O39   1.259       .  A
C35          C44   1.459   1_455  S
O40          C43   1.267       .  A
O40         Cd45   2.498       .  S
C41          O50   1.274       .  A
C41          O46   1.263       .  A
C41         C221   1.551   1_554  S
O42          C48   1.262       .  A
O42         Cd45   2.475       .  S
C43          O51   1.258       .  A
C44          O49   1.266       .  A
C44          O47   1.259       .  A
Cd45         O52   2.538       .  S
Cd45         O51   2.386       .  S
Cd45         O50   2.603       .  S
Cd45         O46   2.453       .  S
Cd45         O49   2.516       .  S
Cd45         O47   2.384       .  S
C48          O52   1.276       .  A
C48         C112   1.550       .  S
O53          C56   1.266       .  A
O53         Cd58   2.484       .  S
C54          O63   1.262       .  A
C54          O59   1.264       .  A
C54         C105   1.526       .  S
O55          C61   1.268       .  A
O55         Cd58   2.513       .  S
C56          O64   1.263       .  A
C56          C70   1.452   1_545  S
C57          O62   1.266       .  A
C57          O60   1.260       .  A
C57         C218   1.528       .  S
Cd58         O65   2.404       .  S
Cd58         O64   2.398       .  S
Cd58         O63   2.458       .  S
Cd58         O59   2.442       .  S
Cd58         O62   2.445       .  S
Cd58         O60   2.452       .  S
C61          O65   1.263       .  A
C61          C80   1.461       .  S
O66          C69   1.268       .  A
O66         Cd71   2.476       .  S
C67          O76   1.265       .  A
C67          O72   1.261       .  A
C67         C217   1.521       .  S
O68          C74   1.267       .  A
O68         Cd71   2.436       .  S
C69          O77   1.264       .  A
C69          C93   1.451       .  S
C70          O75   1.267       .  A
C70          O73   1.261       .  A
Cd71         O78   2.477       .  S
Cd71         O77   2.383       .  S
Cd71         O76   2.488       .  S
Cd71         O72   2.381       .  S
Cd71         O75   2.489       .  S
Cd71         O73   2.392       .  S
C74          O78   1.262       .  A
C74         C110   1.530       .  S
O79          C82   1.261       .  A
O79         Cd84   2.458       .  S
C80          O89   1.261       .  A
C80          O85   1.269       .  A
O81          C87   1.268       .  A
O81         Cd84   2.488       .  S
C82          O90   1.272       .  A
C82         C224   1.543       .  S
C83          O88   1.269       .  A
C83          O86   1.266       .  A
C83         C106   1.542       .  S
Cd84         O91   2.371       .  S
Cd84         O90   2.516       .  S
Cd84         O89   2.391       .  S
Cd84         O85   2.514       .  S
Cd84         O88   2.451       .  S
Cd84         O86   2.496       .  S
C87          O91   1.260       .  A
C87          C96   1.450   1_545  S
O92          C95   1.267       .  A
O92         Cd97   2.483       .  S
C93         O102   1.259       .  A
C93          O98   1.265       .  A
O94         C100   1.266       .  A
O94         Cd97   2.454       .  S
C95         O103   1.253       .  A
C95         C223   1.514       .  S
C96         O101   1.270       .  A
C96          O99   1.266       .  A
Cd97        O104   2.450       .  S
Cd97        O103   2.402       .  S
Cd97        O102   2.391       .  S
Cd97         O98   2.494       .  S
Cd97        O101   2.464       .  S
Cd97         O99   2.365       .  S
C100        O104   1.262       .  A
C100        C109   1.530       .  S
C105        C121   1.524       .  S
C105        C366   1.568       .  S
C105        C376   1.603       .  S
C106        C147   1.531       .  S
C106        C356   1.568       .  S
C106        C379   1.603       .  S
C107        C192   1.552       .  S
C107        C336   1.577       .  S
C107        C346   1.582       .  S
C108        C168   1.544       .  S
C108        C349   1.582       .  S
C108        C369   1.576       .  S
C109        C153   1.527       .  S
C109        C319   1.568       .  S
C109        C329   1.606       .  S
C110        C129   1.517       .  S
C110        C326   1.608       .  S
C110        C339   1.567       .  S
C111        C179   1.539       .  S
C111        C306   1.585       .  S
C111        C359   1.577       .  S
C112        C207   1.554       .  S
C112        C309   1.585       .  S
C112        C316   1.577       .  S
O113        C116   1.267       .  A
O113       Cd118   2.478       .  S
C114        O123   1.266       .  A
C114        O119   1.263       .  A
C114        C602   1.528       .  S
O115        C121   1.264       .  A
O115       Cd118   2.396       .  S
C116        O124   1.264       .  A
C116        C140   1.453       .  S
C117        O122   1.266       .  A
C117        O120   1.263       .  A
C117        C127   1.446   1_545  S
Cd118       O125   2.470       .  S
Cd118       O124   2.382       .  S
Cd118       O123   2.504       .  S
Cd118       O119   2.380       .  S
Cd118       O122   2.451       .  S
Cd118       O120   2.380       .  S
C121        O125   1.266       .  A
O126        C129   1.261       .  A
O126       Cd131   2.376       .  S
C127        O136   1.264       .  A
C127        O132   1.267       .  A
O128        C134   1.265       .  A
O128       Cd131   2.414       .  S
C129        O137   1.265       .  A
C130        O135   1.266       .  A
C130        O133   1.261       .  A
C130        C156   1.445       .  S
Cd131       O138   2.443       .  S
Cd131       O137   2.457       .  S
Cd131       O136   2.380       .  S
Cd131       O132   2.447       .  S
Cd131       O135   2.463       .  S
Cd131       O133   2.379       .  S
C134        O138   1.262       .  A
C134        C601   1.521       .  S
O139        C142   1.261       .  A
O139       Cd144   2.418       .  S
C140        O149   1.261       .  A
C140        O145   1.269       .  A
O141        C147   1.266       .  A
O141       Cd144   2.404       .  S
C142        O150   1.271       .  A
C142        C608   1.542       .  S
C143        O148   1.266       .  A
C143        O146   1.261       .  A
C143        C155   1.447   1_545  S
Cd144       O151   2.470       .  S
Cd144       O150   2.523       .  S
Cd144       O149   2.375       .  S
Cd144       O145   2.488       .  S
Cd144       O148   2.453       .  S
Cd144       O146   2.385       .  S
C147        O151   1.268       .  A
O152        C155   1.266       .  A
O152       Cd157   2.459       .  S
C153        O162   1.267       .  A
C153        O158   1.262       .  A
O154        C160   1.266       .  A
O154       Cd157   2.455       .  S
C155        O163   1.263       .  A
C156        O161   1.267       .  A
C156        O159   1.265       .  A
Cd157       O164   2.458       .  S
Cd157       O163   2.389       .  S
Cd157       O162   2.490       .  S
Cd157       O158   2.389       .  S
Cd157       O161   2.444       .  S
Cd157       O159   2.369       .  S
C160        O164   1.269       .  A
C160        C607   1.530       .  S
O165        C168   1.262       .  A
O165       Cd170   2.448       .  S
C166        O175   1.262       .  A
C166        O171   1.266       .  A
C166        C181   1.456   1_455  S
O167        C173   1.265       .  A
O167       Cd170   2.409       .  S
C168        O176   1.273       .  A
C169        O174   1.266       .  A
C169        O172   1.264       .  A
C169        C195   1.449       .  S
Cd170       O177   2.499       .  S
Cd170       O176   2.503       .  S
Cd170       O175   2.396       .  S
Cd170       O171   2.486       .  S
Cd170       O174   2.463       .  S
Cd170       O172   2.380       .  S
C173        O177   1.269       .  A
C173        C604   1.535       .  S
O178        C181   1.267       .  A
O178       Cd183   2.490       .  S
C179        O188   1.272       .  A
C179        O184   1.261       .  A
O180        C186   1.266       .  A
O180       Cd183   2.414       .  S
C181        O189   1.261       .  A
C182        O187   1.267       .  A
C182        O185   1.262       .  A
C182        C208   1.446       .  S
Cd183       O190   2.484       .  S
Cd183       O189   2.393       .  S
Cd183       O188   2.501       .  S
Cd183       O184   2.441       .  S
Cd183       O187   2.454       .  S
Cd183       O185   2.381       .  S
C186        O190   1.268       .  A
C186        C603   1.536       .  S
O191        C194   1.267       .  A
O191       Cd196   2.483       .  S
C192        O201   1.276       .  A
C192        O197   1.263       .  A
O193        C199   1.262       .  A
O193       Cd196   2.457       .  S
C194        O202   1.259       .  A
C194        C205   1.451   1_455  S
C195        O200   1.267       .  A
C195        O198   1.259       .  A
Cd196       O203   2.541       .  S
Cd196       O202   2.372       .  S
Cd196       O201   2.519       .  S
Cd196       O197   2.474       .  S
Cd196       O200   2.474       .  S
Cd196       O198   2.374       .  S
C199        O203   1.276       .  A
C199        C606   1.547       .  S
O204        C207   1.262       .  A
O204       Cd209   2.489       .  S
C205        O214   1.263       .  A
C205        O210   1.266       .  A
O206        C212   1.270       .  A
O206       Cd209   2.498       .  S
C207        O215   1.275       .  A
C208        O213   1.267       .  A
C208        O211   1.264       .  A
Cd209       O216   2.487       .  S
Cd209       O215   2.527       .  S
Cd209       O214   2.378       .  S
Cd209       O210   2.479       .  S
Cd209       O213   2.446       .  S
Cd209       O211   2.378       .  S
C212        O216   1.266       .  A
C212        C605   1.551       .  S
C217        C286   1.567       .  S
C217        C296   1.610       .  S
C217        C518   1.521   1_554  S
C218        C279   1.586       .  S
C218        C299   1.608       .  S
C218        C498   1.528   1_554  S
C219        C256   1.569       .  S
C219        C266   1.602       .  S
C219        C570   1.536       .  S
C220        C269   1.599       .  S
C220        C276   1.580       .  S
C220        C557   1.535       .  S
C221        C236   1.573       .  S
C221        C249   1.577       .  S
C221        C596   1.551       .  S
C222        C246   1.570       .  S
C222        C289   1.571       .  S
C222        C583   1.547       .  S
C223        C229   1.622       .  S
C223        C239   1.572       .  S
C223        C544   1.530   1_554  S
C224        C226   1.588       .  S
C224        C259   1.573       .  S
C224        C526   1.542   1_554  S
C225        C226   1.428       .  A
C225        C230   1.447   1_545  A
C225       Br232   1.936       .  S
C226        C611   1.405   1_554  A
C227        C228   1.392   1_545  A
C227        C610   1.405       .  A
C227       Br234   1.912       .  S
C228        C613   1.428       .  A
C228       Br233   1.931       .  S
C229        C230   1.452       .  A
C229        C612   1.428   1_554  A
C230       Br231   1.911       .  S
C235        C240   1.404       .  A
C235        C620   1.436       .  A
C235       Br242   1.945       .  S
C236        C237   1.435   1_556  A
C236        C619   1.436       .  A
C237        C238   1.398       .  A
C237       Br244   1.921       .  S
C238        C239   1.395       .  A
C238       Br243   1.927       .  S
C239        C624   1.432   1_554  A
C240        C623   1.432       .  A
C240       Br241   1.949       .  S
C245        C246   1.424   1_554  A
C245        C250   1.414   1_455  A
C245       Br252   1.940       .  S
C246        C631   1.429       .  A
C247        C248   1.417   1_455  A
C247        C630   1.429       .  A
C247       Br254   1.936       .  S
C248        C633   1.420       .  A
C248       Br253   1.937       .  S
C249        C250   1.430   1_556  A
C249        C632   1.420       .  A
C250       Br251   1.939       .  S
C255        C260   1.416       .  A
C255        C640   1.418       .  A
C255       Br262   1.931       .  S
C256        C257   1.436       .  A
C256        C639   1.418   1_556  A
C257        C258   1.410       .  A
C257       Br264   1.951       .  S
C258        C259   1.436   1_556  A
C258       Br263   1.967       .  S
C259        C644   1.427       .  A
C260        C643   1.427       .  A
C260       Br261   1.928       .  S
C265        C270   1.441   1_655  A
C265        C650   1.434       .  A
C265       Br272   1.935       .  S
C266        C267   1.433   1_556  A
C266        C649   1.434       .  A
C267        C268   1.414   1_655  A
C267       Br274   1.956       .  S
C268        C269   1.441   1_554  A
C268       Br273   1.952       .  S
C269        C654   1.433       .  A
C270        C653   1.433       .  A
C270       Br271   1.934       .  S
C275        C280   1.412       .  A
C275        C660   1.437       .  A
C275       Br282   1.967       .  S
C276        C277   1.431   1_556  A
C276        C659   1.437       .  A
C277        C278   1.434       .  A
C277       Br284   1.935       .  S
C278        C279   1.430       .  A
C278       Br283   1.938       .  S
C279        C664   1.445   1_554  A
C280        C663   1.445       .  A
C280       Br281   1.969       .  S
C285        C286   1.446       .  A
C285        C290   1.411       .  A
C285       Br292   1.952       .  S
C286        C671   1.409   1_554  A
C287        C288   1.409       .  A
C287        C670   1.409       .  A
C287       Br294   1.934       .  S
C288        C673   1.439       .  A
C288       Br293   1.932       .  S
C289        C290   1.428   1_556  A
C289        C672   1.439       .  A
C290       Br291   1.964   1_554  S
C295        C296   1.430       .  A
C295        C684   1.434   1_565  A
C295       Br686   1.921       .  S
C296        C297   1.440   1_554  A
C297        C298   1.416   1_566  A
C297       Br304   1.949       .  S
C298        C299   1.444       .  A
C298       Br303   1.951       .  S
C299        C684   1.428       .  A
C300        C679   1.434   1_545  A
C300        C683   1.428       .  A
C300       Br301   1.921       .  S
Br302       C679   1.921       .  S
C305        C306   1.426       .  A
C305        C310   1.421       .  A
C305       Br312   1.937       .  S
C306        C307   1.427       .  A
C307        C308   1.422       .  A
C307       Br314   1.935       .  S
C308        C309   1.427       .  A
C308       Br313   1.935       .  S
C309        C310   1.429       .  A
C310       Br311   1.937       .  S
C315        C316   1.433       .  A
C315        C320   1.409       .  A
C315       Br322   1.968       .  S
C316        C317   1.437       .  A
C317        C318   1.418       .  A
C317       Br324   1.933       .  S
C318        C319   1.417       .  A
C318       Br323   1.936       .  S
C319        C320   1.440       .  A
C320       Br321   1.953       .  S
C325        C326   1.439       .  A
C325        C330   1.443       .  A
C325       Br332   1.934       .  S
C326        C327   1.442       .  A
C327        C328   1.417       .  A
C327       Br334   1.956       .  S
C328        C329   1.436       .  A
C328       Br333   1.956       .  S
C329        C330   1.430       .  A
C330       Br331   1.933       .  S
C335        C336   1.432       .  A
C335        C340   1.409       .  A
C335       Br342   1.967       .  S
C336        C337   1.439       .  A
C337        C338   1.419       .  A
C337       Br344   1.934       .  S
C338        C339   1.415       .  A
C338       Br343   1.937       .  S
C339        C340   1.440       .  A
C340       Br341   1.955       .  S
C345        C346   1.427       .  A
C345        C350   1.421       .  A
C345       Br352   1.935       .  S
C346        C347   1.428       .  A
C347        C348   1.420       .  A
C347       Br354   1.937       .  S
C348        C349   1.428       .  A
C348       Br353   1.938       .  S
C349        C350   1.426       .  A
C350       Br351   1.935       .  S
C355        C356   1.417       .  A
C355        C360   1.419       .  A
C355       Br362   1.935       .  S
C356        C357   1.435       .  A
C357        C358   1.410       .  A
C357       Br364   1.952       .  S
C358        C359   1.437       .  A
C358       Br363   1.968       .  S
C359        C360   1.434       .  A
C360       Br361   1.932       .  S
C365        C366   1.440       .  A
C365        C370   1.409       .  A
C365       Br372   1.955       .  S
C366        C367   1.418       .  A
C367        C368   1.419       .  A
C367       Br374   1.937       .  S
C368        C369   1.436       .  A
C368       Br373   1.933       .  S
C369        C370   1.433       .  A
C370       Br371   1.969       .  S
C375        C376   1.433       .  A
C375        C380   1.441       .  A
C375       Br382   1.935       .  S
C376        C377   1.441       .  A
C377        C378   1.416       .  A
C377       Br384   1.955       .  S
C378        C379   1.435       .  A
C378       Br383   1.955       .  S
C379        C380   1.437       .  A
C380       Br381   1.935       .  S
O385        C388   1.269       .  A
O385       Cd390   2.523       .  S
C386        O395   1.272       .  A
C386        O391   1.259       .  A
C386        C492   1.540       .  S
O387        C393   1.270       .  A
O387       Cd390   2.475       .  S
C388        O396   1.261       .  A
C388        C402   1.462   1_455  S
C389        O394   1.267       .  A
C389        O392   1.259       .  A
C389        C414   1.454       .  S
Cd390       O397   2.482       .  S
Cd390       O396   2.387       .  S
Cd390       O395   2.522       .  S
Cd390       O391   2.444       .  S
Cd390       O394   2.510       .  S
Cd390       O392   2.374       .  S
C393        O397   1.266       .  A
C393        C604   1.542       .  S
O398        C401   1.268       .  A
O398       Cd403   2.453       .  S
C399        O408   1.262       .  A
C399        O404   1.266       .  A
C399        C427   1.455       .  S
O400        C406   1.260       .  A
O400       Cd403   2.455       .  S
C401        O409   1.267       .  A
C401        C603   1.543       .  S
C402        O407   1.268       .  A
C402        O405   1.262       .  A
Cd403       O410   2.508       .  S
Cd403       O409   2.497       .  S
Cd403       O408   2.391       .  S
Cd403       O404   2.495       .  S
Cd403       O407   2.519       .  S
Cd403       O405   2.389       .  S
C406        O410   1.272       .  A
C406        C495   1.541       .  S
O411        C414   1.266       .  A
O411       Cd416   2.498       .  S
C412        O421   1.275       .  A
C412        O417   1.263       .  A
C412        C606   1.554       .  S
O413        C419   1.267       .  A
O413       Cd416   2.514       .  S
C414        O422   1.259       .  A
C415        O420   1.262       .  A
C415        O418   1.275       .  A
C415        C491   1.551       .  S
Cd416       O423   2.385       .  S
Cd416       O422   2.376       .  S
Cd416       O421   2.536       .  S
Cd416       O417   2.472       .  S
Cd416       O420   2.479       .  S
Cd416       O418   2.539       .  S
C419        O423   1.259       .  A
C419        C428   1.459   1_455  S
O424        C427   1.267       .  A
O424       Cd429   2.498       .  S
C425        O434   1.274       .  A
C425        O430   1.263       .  A
C425        C605   1.551       .  S
O426        C432   1.262       .  A
O426       Cd429   2.475       .  S
C427        O435   1.258       .  A
C428        O433   1.266       .  A
C428        O431   1.259       .  A
Cd429       O436   2.538       .  S
Cd429       O435   2.386       .  S
Cd429       O434   2.603       .  S
Cd429       O430   2.453       .  S
Cd429       O433   2.516       .  S
Cd429       O431   2.384       .  S
C432        O436   1.276       .  A
C432        C496   1.550       .  S
O437        C440   1.266       .  A
O437       Cd442   2.484       .  S
C438        O447   1.262       .  A
C438        O443   1.264       .  A
C438        C489   1.526       .  S
O439        C445   1.268       .  A
O439       Cd442   2.513       .  S
C440        O448   1.263       .  A
C440        C454   1.452   1_545  S
C441        O446   1.266       .  A
C441        O444   1.260       .  A
C441        C602   1.528       .  S
Cd442       O449   2.404       .  S
Cd442       O448   2.398       .  S
Cd442       O447   2.458       .  S
Cd442       O443   2.442       .  S
Cd442       O446   2.445       .  S
Cd442       O444   2.452       .  S
C445        O449   1.263       .  A
C445        C464   1.461       .  S
O450        C453   1.268       .  A
O450       Cd455   2.476       .  S
C451        O460   1.265       .  A
C451        O456   1.261       .  A
C451        C601   1.521       .  S
O452        C458   1.267       .  A
O452       Cd455   2.436       .  S
C453        O461   1.264       .  A
C453        C477   1.451       .  S
C454        O459   1.267       .  A
C454        O457   1.261       .  A
Cd455       O462   2.477       .  S
Cd455       O461   2.383       .  S
Cd455       O460   2.488       .  S
Cd455       O456   2.381       .  S
Cd455       O459   2.489       .  S
Cd455       O457   2.392       .  S
C458        O462   1.262       .  A
C458        C494   1.530       .  S
O463        C466   1.261       .  A
O463       Cd468   2.458       .  S
C464        O473   1.261       .  A
C464        O469   1.269       .  A
O465        C471   1.268       .  A
O465       Cd468   2.488       .  S
C466        O474   1.272       .  A
C466        C608   1.543       .  S
C467        O472   1.269       .  A
C467        O470   1.266       .  A
C467        C490   1.542       .  S
Cd468       O475   2.371       .  S
Cd468       O474   2.516       .  S
Cd468       O473   2.391       .  S
Cd468       O469   2.514       .  S
Cd468       O472   2.451       .  S
Cd468       O470   2.496       .  S
C471        O475   1.260       .  A
C471        C480   1.450   1_545  S
O476        C479   1.267       .  A
O476       Cd481   2.483       .  S
C477        O486   1.259       .  A
C477        O482   1.265       .  A
O478        C484   1.266       .  A
O478       Cd481   2.454       .  S
C479        O487   1.253       .  A
C479        C607   1.514       .  S
C480        O485   1.270       .  A
C480        O483   1.266       .  A
Cd481       O488   2.450       .  S
Cd481       O487   2.402       .  S
Cd481       O486   2.391       .  S
Cd481       O482   2.494       .  S
Cd481       O485   2.464       .  S
Cd481       O483   2.365       .  S
C484        O488   1.262       .  A
C484        C493   1.530       .  S
C489        C505   1.524       .  S
C489        C750   1.568       .  S
C489        C760   1.603       .  S
C490        C531   1.531       .  S
C490        C740   1.568       .  S
C490        C763   1.603       .  S
C491        C576   1.552       .  S
C491        C720   1.577       .  S
C491        C730   1.582       .  S
C492        C552   1.544       .  S
C492        C733   1.582       .  S
C492        C753   1.576       .  S
C493        C537   1.527       .  S
C493        C703   1.568       .  S
C493        C713   1.606       .  S
C494        C513   1.517       .  S
C494        C710   1.608       .  S
C494        C723   1.567       .  S
C495        C563   1.539       .  S
C495        C690   1.585       .  S
C495        C743   1.577       .  S
C496        C591   1.554       .  S
C496        C693   1.585       .  S
C496        C700   1.577       .  S
O497        C500   1.267       .  A
O497       Cd502   2.478       .  S
C498        O507   1.266       .  A
C498        O503   1.263       .  A
O499        C505   1.264       .  A
O499       Cd502   2.396       .  S
C500        O508   1.264       .  A
C500        C524   1.453       .  S
C501        O506   1.266       .  A
C501        O504   1.263       .  A
C501        C511   1.446   1_545  S
Cd502       O509   2.470       .  S
Cd502       O508   2.382       .  S
Cd502       O507   2.504       .  S
Cd502       O503   2.380       .  S
Cd502       O506   2.451       .  S
Cd502       O504   2.380       .  S
C505        O509   1.266       .  A
O510        C513   1.261       .  A
O510       Cd515   2.376       .  S
C511        O520   1.264       .  A
C511        O516   1.267       .  A
O512        C518   1.265       .  A
O512       Cd515   2.414       .  S
C513        O521   1.265       .  A
C514        O519   1.266       .  A
C514        O517   1.261       .  A
C514        C540   1.445       .  S
Cd515       O522   2.443       .  S
Cd515       O521   2.457       .  S
Cd515       O520   2.380       .  S
Cd515       O516   2.447       .  S
Cd515       O519   2.463       .  S
Cd515       O517   2.379       .  S
C518        O522   1.262       .  A
O523        C526   1.261       .  A
O523       Cd528   2.418       .  S
C524        O533   1.261       .  A
C524        O529   1.269       .  A
O525        C531   1.266       .  A
O525       Cd528   2.404       .  S
C526        O534   1.271       .  A
C527        O532   1.266       .  A
C527        O530   1.261       .  A
C527        C539   1.447   1_545  S
Cd528       O535   2.470       .  S
Cd528       O534   2.523       .  S
Cd528       O533   2.375       .  S
Cd528       O529   2.488       .  S
Cd528       O532   2.453       .  S
Cd528       O530   2.385       .  S
C531        O535   1.268       .  A
O536        C539   1.266       .  A
O536       Cd541   2.459       .  S
C537        O546   1.267       .  A
C537        O542   1.262       .  A
O538        C544   1.266       .  A
O538       Cd541   2.455       .  S
C539        O547   1.263       .  A
C540        O545   1.267       .  A
C540        O543   1.265       .  A
Cd541       O548   2.458       .  S
Cd541       O547   2.389       .  S
Cd541       O546   2.490       .  S
Cd541       O542   2.389       .  S
Cd541       O545   2.444       .  S
Cd541       O543   2.369       .  S
C544        O548   1.269       .  A
O549        C552   1.262       .  A
O549       Cd554   2.448       .  S
C550        O559   1.262       .  A
C550        O555   1.266       .  A
C550        C565   1.456   1_455  S
O551        C557   1.265       .  A
O551       Cd554   2.409       .  S
C552        O560   1.273       .  A
C553        O558   1.266       .  A
C553        O556   1.264       .  A
C553        C579   1.449       .  S
Cd554       O561   2.499       .  S
Cd554       O560   2.503       .  S
Cd554       O559   2.396       .  S
Cd554       O555   2.486       .  S
Cd554       O558   2.463       .  S
Cd554       O556   2.380       .  S
C557        O561   1.269       .  A
O562        C565   1.267       .  A
O562       Cd567   2.490       .  S
C563        O572   1.272       .  A
C563        O568   1.261       .  A
O564        C570   1.266       .  A
O564       Cd567   2.414       .  S
C565        O573   1.261       .  A
C566        O571   1.267       .  A
C566        O569   1.262       .  A
C566        C592   1.446       .  S
Cd567       O574   2.483       .  S
Cd567       O573   2.393       .  S
Cd567       O572   2.501       .  S
Cd567       O568   2.441       .  S
Cd567       O571   2.453       .  S
Cd567       O569   2.381       .  S
C570        O574   1.268       .  A
O575        C578   1.267       .  A
O575       Cd580   2.483       .  S
C576        O585   1.276       .  A
C576        O581   1.263       .  A
O577        C583   1.262       .  A
O577       Cd580   2.457       .  S
C578        O586   1.259       .  A
C578        C589   1.451   1_455  S
C579        O584   1.267       .  A
C579        O582   1.259       .  A
Cd580       O587   2.541       .  S
Cd580       O586   2.372       .  S
Cd580       O585   2.519       .  S
Cd580       O581   2.474       .  S
Cd580       O584   2.474       .  S
Cd580       O582   2.374       .  S
C583        O587   1.276       .  A
O588        C591   1.262       .  A
O588       Cd593   2.489       .  S
C589        O598   1.263       .  A
C589        O594   1.266       .  A
O590        C596   1.270       .  A
O590       Cd593   2.499       .  S
C591        O599   1.275       .  A
C592        O597   1.267       .  A
C592        O595   1.264       .  A
Cd593       O600   2.487       .  S
Cd593       O599   2.527       .  S
Cd593       O598   2.378       .  S
Cd593       O594   2.479       .  S
Cd593       O597   2.446       .  S
Cd593       O595   2.378       .  S
C596        O600   1.266       .  A
C601        C670   1.567       .  S
C601        C680   1.610       .  S
C602        C663   1.586       .  S
C602        C683   1.608       .  S
C603        C640   1.569       .  S
C603        C650   1.602       .  S
C604        C653   1.599       .  S
C604        C660   1.580       .  S
C605        C620   1.573       .  S
C605        C633   1.577       .  S
C606        C630   1.570       .  S
C606        C673   1.571       .  S
C607        C613   1.622       .  S
C607        C623   1.572       .  S
C608        C610   1.588       .  S
C608        C643   1.573       .  S
C609        C610   1.428       .  A
C609        C614   1.447   1_545  A
C609       Br616   1.936       .  S
C611        C612   1.392   1_545  A
C611       Br618   1.912       .  S
C612       Br617   1.931       .  S
C613        C614   1.452       .  A
C614       Br615   1.911       .  S
C619        C624   1.404       .  A
C619       Br626   1.945       .  S
C620        C621   1.435       .  A
C621        C622   1.398       .  A
C621       Br628   1.921       .  S
C622        C623   1.395       .  A
C622       Br627   1.927       .  S
C624       Br625   1.949       .  S
C629        C630   1.424       .  A
C629        C634   1.414   1_455  A
C629       Br636   1.940       .  S
C631        C632   1.417   1_455  A
C631       Br638   1.936       .  S
C632       Br637   1.937       .  S
C633        C634   1.430       .  A
C634       Br635   1.939       .  S
C639        C644   1.416       .  A
C639       Br646   1.931       .  S
C640        C641   1.436       .  A
C641        C642   1.410       .  A
C641       Br648   1.951       .  S
C642        C643   1.436       .  A
C642       Br647   1.967       .  S
C644       Br645   1.928   1_554  S
C649        C654   1.441   1_655  A
C649       Br656   1.935       .  S
C650        C651   1.433       .  A
C651        C652   1.414   1_655  A
C651       Br658   1.956       .  S
C652        C653   1.441       .  A
C652       Br657   1.952       .  S
C654       Br655   1.934       .  S
C659        C664   1.412       .  A
C659       Br666   1.967       .  S
C660        C661   1.431       .  A
C661        C662   1.434       .  A
C661       Br668   1.935       .  S
C662        C663   1.430       .  A
C662       Br667   1.938       .  S
C664       Br665   1.969       .  S
C669        C670   1.446       .  A
C669        C674   1.411       .  A
C669       Br676   1.952       .  S
C671        C672   1.409       .  A
C671       Br678   1.934       .  S
C672       Br677   1.932       .  S
C673        C674   1.428       .  A
C674       Br675   1.964       .  S
C679        C680   1.430       .  A
C680        C681   1.440       .  A
C681        C682   1.416   1_565  A
C681       Br688   1.949       .  S
C682        C683   1.444       .  A
C682       Br687   1.951       .  S
C684       Br685   1.921   1_554  S
C689        C690   1.426       .  A
C689        C694   1.421       .  A
C689       Br696   1.937       .  S
C690        C691   1.427       .  A
C691        C692   1.422       .  A
C691       Br698   1.935       .  S
C692        C693   1.427       .  A
C692       Br697   1.935       .  S
C693        C694   1.429       .  A
C694       Br695   1.937       .  S
C699        C700   1.433       .  A
C699        C704   1.409       .  A
C699       Br706   1.968       .  S
C700        C701   1.437       .  A
C701        C702   1.418       .  A
C701       Br708   1.933       .  S
C702        C703   1.417       .  A
C702       Br707   1.936       .  S
C703        C704   1.440       .  A
C704       Br705   1.953       .  S
C709        C710   1.439       .  A
C709        C714   1.443       .  A
C709       Br716   1.934       .  S
C710        C711   1.442       .  A
C711        C712   1.417       .  A
C711       Br718   1.956       .  S
C712        C713   1.436       .  A
C712       Br717   1.956       .  S
C713        C714   1.430       .  A
C714       Br715   1.933       .  S
C719        C720   1.432       .  A
C719        C724   1.409       .  A
C719       Br726   1.967       .  S
C720        C721   1.439       .  A
C721        C722   1.419       .  A
C721       Br728   1.934       .  S
C722        C723   1.415       .  A
C722       Br727   1.937       .  S
C723        C724   1.440       .  A
C724       Br725   1.955       .  S
C729        C730   1.427       .  A
C729        C734   1.421       .  A
C729       Br736   1.935       .  S
C730        C731   1.428       .  A
C731        C732   1.420       .  A
C731       Br738   1.937       .  S
C732        C733   1.428       .  A
C732       Br737   1.938       .  S
C733        C734   1.426       .  A
C734       Br735   1.935       .  S
C739        C740   1.417       .  A
C739        C744   1.419       .  A
C739       Br746   1.935       .  S
C740        C741   1.435       .  A
C741        C742   1.410       .  A
C741       Br748   1.952       .  S
C742        C743   1.437       .  A
C742       Br747   1.968       .  S
C743        C744   1.434       .  A
C744       Br745   1.932       .  S
C749        C750   1.440       .  A
C749        C754   1.409       .  A
C749       Br756   1.955       .  S
C750        C751   1.418       .  A
C751        C752   1.419       .  A
C751       Br758   1.937       .  S
C752        C753   1.436       .  A
C752       Br757   1.933       .  S
C753        C754   1.433       .  A
C754       Br755   1.969       .  S
C759        C760   1.433       .  A
C759        C764   1.441       .  A
C759       Br766   1.935       .  S
C760        C761   1.441       .  A
C761        C762   1.416       .  A
C761       Br768   1.955       .  S
C762        C763   1.435       .  A
C762       Br767   1.955       .  S
C763        C764   1.437       .  A
C764       Br765   1.935       .  S
