geometry optimzed in LAMMPS
_audit_creation_date              2020-12-01 
_audit_creation_method            'lammps2cif' 
_symmetry_space_group_name_H-M    'P1' 
_symmetry_Int_Tables_number       1 
_symmetry_cell_setting            triclinic 
loop_ 
_symmetry_equiv_pos_as_xyz 
  x,y,z 
_cell_length_a                    54.02797865 
_cell_length_b                    25.533653152783245 
_cell_length_c                    38.0946445622059 
_cell_angle_alpha                 90.23607052969909 
_cell_angle_beta                  90.19937885131039 
_cell_angle_gamma                 90.0780364593629 
loop_ 
_atom_site_label 
_atom_site_type_symbol 
_atom_site_fract_x 
_atom_site_fract_y 
_atom_site_fract_z 
_atom_site_charge 
C1          C  0.18086373  0.16172414  0.24361939    -0.01800
C2          C  0.84639778  0.17886429  0.25412515    -0.01800
In3        In  0.95415108  0.35576281  0.00416106     1.36900
C4          C  0.00279113  0.34603527  0.49748110     0.78200
O5          O  0.95265079  0.29431763  0.46077270    -0.60200
O6          O  0.92072070  0.33937213  0.47140298    -0.51100
C7          C  0.93202705  0.31510819  0.06025002     0.70900
O8          O  0.95409292  0.30435314  0.05235017    -0.46000
C9          C  0.95161461  0.46016398  0.00599755     0.75600
O10         O  0.99108140  0.32575710  0.02261802    -0.57800
O11         O  0.94703258  0.43359672  0.47887406    -0.47900
O12         O  0.98955987  0.36957944  0.47526555    -0.54300
C13         C  0.93049451  0.30425438  0.45295671     0.85800
O14         O  0.92164155  0.34722079  0.04006985    -0.56200
O15         O  0.95737611  0.43350762  0.03255610    -0.59500
In16       In  0.07878621  0.35368017  0.99347733     1.36900
C17         C  0.02981770  0.34504397  0.99508801     0.78200
O18         O  0.08859175  0.28317915  0.02641040    -0.60200
O19         O  0.10586558  0.35583909  0.03814496    -0.51100
C20         C  0.10013540  0.31107389  0.43744105     0.70900
O21         O  0.07799219  0.30143127  0.44545601    -0.46000
C22         C  0.08022723  0.45773131  0.49737019     0.75600
O23         O  0.04122869  0.36443549  0.46944833    -0.57800
O24         O  0.07260289  0.42941883  0.02206650    -0.47900
O25         O  0.04346497  0.32733875  0.01917990    -0.54300
C26         C  0.10354442  0.30812326  0.04570517     0.85800
O27         O  0.11105795  0.34266342  0.45771640    -0.56200
O28         O  0.08798191  0.43292776  0.47093017    -0.59500
C29         C  0.18454848  0.79099853  0.25330473    -0.01800
C30         C  0.84608550  0.80811203  0.25562616    -0.01800
In31       In  0.95091567  0.62220296  0.00504577     1.36900
C32         C  0.99963391  0.63140584  0.00172518     0.78200
O33         O  0.94821988  0.68034443  0.04948325    -0.60200
O34         O  0.91861989  0.62674749  0.04196275    -0.51100
C35         C  0.92791760  0.67175602  0.45285000     0.70900
O36         O  0.94799272  0.68833176  0.46569072    -0.46000
C37         C  0.95071973  0.51755499  0.50613838     0.75600
O38         O  0.98656571  0.62111417  0.47510595    -0.57800
O39         O  0.95432709  0.54479276  0.03329740    -0.47900
O40         O  0.98772753  0.63957296  0.02958427    -0.54300
C41         C  0.92742457  0.66420788  0.05969242     0.85800
O42         O  0.91975864  0.63061062  0.46680458    -0.56200
O43         O  0.94663025  0.54360967  0.47876572    -0.59500
In44       In  0.07542576  0.61910763  0.00182207     1.36900
C45         C  0.02662992  0.63049408  0.50095157     0.78200
O46         O  0.10940068  0.63647771  0.47053371    -0.60200
O47         O  0.07558444  0.67203669  0.45480867    -0.51100
C48         C  0.09681920  0.66154568  0.05819455     0.70900
O49         O  0.08625731  0.68878154  0.03506960    -0.46000
C50         C  0.07926340  0.51499600  0.99907624     0.75600
O51         O  0.03968426  0.64268014  0.02717809    -0.57800
O52         O  0.08779186  0.54414885  0.47542425    -0.47900
O53         O  0.03855439  0.61457183  0.47467772    -0.54300
C54         C  0.09838835  0.66607873  0.44917875     0.85800
O55         O  0.09658968  0.61300230  0.05236273    -0.56200
O56         O  0.06918326  0.53893435  0.02414497    -0.59500
C57         C  0.34530352  0.28912264  0.24967981    -0.01800
C58         C  0.68085360  0.29954479  0.25470794    -0.01800
In59       In  0.57555786  0.11806178  0.00391840     1.36900
C60         C  0.52665605  0.12627932  0.50795784     0.78200
O61         O  0.58504453  0.18876585  0.47157214    -0.60200
O62         O  0.59459992  0.11366283  0.45186938    -0.51100
C63         C  0.59904292  0.16511049  0.05656153     0.70900
O64         O  0.57589545  0.16725593  0.05274675    -0.46000
C65         C  0.58089202  0.01451844  0.00266663     0.75600
O66         O  0.53923927  0.10098837  0.02998250    -0.57800
O67         O  0.56881723  0.03920759  0.47976492    -0.47900
O68         O  0.53910414  0.14937591  0.48477542    -0.54300
C69         C  0.59504899  0.16246947  0.44747528     0.85800
O70         O  0.61018418  0.13820696  0.03379401    -0.56200
O71         O  0.59101486  0.04280972  0.02584806    -0.59500
In72       In  0.45120027  0.11023598  0.99993451     1.36900
C73         C  0.49962897  0.12517626  0.00756836     0.78200
O74         O  0.44482286  0.18016130  0.03525912    -0.60200
O75         O  0.42371313  0.11061239  0.04303443    -0.51100
C76         C  0.42880544  0.14857147  0.44351670     0.70900
O77         O  0.44984704  0.12769428  0.44230517    -0.46000
C78         C  0.44705245  0.00626452  0.49622012     0.75600
O79         O  0.48700283  0.14907882  0.48499005    -0.57800
O80         O  0.44262047  0.03193223  0.02366126    -0.47900
O81         O  0.48728390  0.09699241  0.02807131    -0.54300
C82         C  0.42841521  0.15673127  0.05287579     0.85800
O83         O  0.41888514  0.14873499  0.47333731    -0.56200
O84         O  0.45250795  0.03370939  0.47001264    -0.59500
C85         C  0.34869691  0.66013386  0.24702495    -0.01800
C86         C  0.68277867  0.67117241  0.25868855    -0.01800
In87       In  0.57712894  0.85355620  0.00854711     1.36900
C88         C  0.52823525  0.84094915  0.00750867     0.78200
O89         O  0.60456500  0.79823752  0.03361927    -0.60200
O90         O  0.57895382  0.83631013  0.06666076    -0.51100
C91         C  0.59922233  0.81148986  0.45345584     0.70900
O92         O  0.57895991  0.79422914  0.46520013    -0.46000
C93         C  0.58156751  0.95723086  0.50327190     0.75600
O94         O  0.54209323  0.82197862  0.48425890    -0.57800
O95         O  0.59300704  0.93142339  0.02623138    -0.47900
O96         O  0.53941676  0.86306173  0.03253000    -0.54300
C97         C  0.59714393  0.80588315  0.06438566     0.85800
O98         O  0.60821920  0.85011764  0.47003334    -0.56200
O99         O  0.56940211  0.92990147  0.48181635    -0.59500
In100      In  0.45233983  0.84566762  0.99756836     1.36900
C101        C  0.50125089  0.84029167  0.50463652     0.78200
O102        O  0.44441325  0.77495012  0.46407774    -0.60200
O103        O  0.43226486  0.84928033  0.44617718    -0.51100
C104        C  0.42795571  0.79847970  0.04927299     0.70900
O105        O  0.45052880  0.79041701  0.04329098    -0.46000
C106        C  0.44739860  0.94902307  0.99569896     0.75600
O107        O  0.48756484  0.86210606  0.02695116    -0.57800
O108        O  0.45612954  0.92317231  0.47038469    -0.47900
O109        O  0.48996166  0.82013549  0.47893352    -0.54300
C110        C  0.43336443  0.80075066  0.44069011     0.85800
O111        O  0.41769979  0.83034788  0.02862252    -0.56200
O112        O  0.44030411  0.92194295  0.02140004    -0.59500
C113        C  0.63951755  0.77046472  0.38729841     0.30400
C114        C  0.66206127  0.76757220  0.36941729    -0.35900
C115        C  0.66250458  0.73450829  0.34003121     0.16400
C116        C  0.64217677  0.70657425  0.32858267     0.22200
C117        C  0.61957818  0.70900880  0.34672662    -0.34000
C118        C  0.61917758  0.74177264  0.37647660     0.16300
O119        O  0.63509389  0.79903087  0.41543641    -0.26000
C120        C  0.61167819  0.78819586  0.42305900     0.06100
C121        C  0.60077914  0.75276538  0.39979561    -0.30900
O122        O  0.64667082  0.67990720  0.29950621    -0.22800
C123        C  0.67025598  0.69094752  0.29213478    -0.02800
C124        C  0.68102769  0.72411870  0.31715364    -0.17200
H125        H  0.67812714  0.78977161  0.37774986     0.20800
H126        H  0.60345069  0.68720775  0.33816496     0.19200
H127        H  0.58206964  0.73756879  0.40003192     0.19100
H128        H  0.69964187  0.73961261  0.31828380     0.15000
C129        C  0.63481625  0.74100337  0.12515285     0.30400
C130        C  0.65484104  0.71046114  0.13651109    -0.35900
C131        C  0.65761243  0.70559596  0.17294863     0.16400
C132        C  0.64180044  0.72908202  0.19659619     0.22200
C133        C  0.62174726  0.75951626  0.18525630    -0.34000
C134        C  0.61896427  0.76442952  0.14882339     0.16300
O135        O  0.62905286  0.75177326  0.09231092    -0.26000
C136        C  0.60921588  0.78232747  0.09502488     0.06100
C137        C  0.60211103  0.79158583  0.12952201    -0.30900
O138        O  0.64814091  0.72016294  0.22945095    -0.22800
C139        C  0.66829354  0.69035523  0.22696305    -0.02800
C140        C  0.67501301  0.68020856  0.19228269    -0.17200
H141        H  0.66751092  0.69221942  0.11823965     0.20800
H142        H  0.60932820  0.77845377  0.20356523     0.19200
H143        H  0.58700569  0.81557609  0.13895095     0.19100
H144        H  0.69065974  0.65781429  0.18288144     0.15000
C145        C  0.38200081  0.68807376  0.32608003     0.30400
C146        C  0.39269430  0.67765211  0.35891107    -0.35900
C147        C  0.40429429  0.72023843  0.37552183     0.16400
C148        C  0.40499843  0.76970617  0.36100851     0.22200
C149        C  0.39461586  0.77986037  0.32804945    -0.34000
C150        C  0.38324963  0.73722379  0.31140050     0.16300
O151        O  0.36995910  0.65441900  0.30602922    -0.26000
C152        C  0.36345354  0.68221299  0.27793143     0.06100
C153        C  0.37149528  0.73407910  0.28002855    -0.30900
O154        O  0.41566174  0.80434650  0.38177112    -0.22800
C155        C  0.42216603  0.77656389  0.40970746    -0.02800
C156        C  0.41575529  0.72396441  0.40728640    -0.17200
H157        H  0.39185541  0.63924413  0.37076825     0.20800
H158        H  0.39509220  0.81843712  0.31640231     0.19200
H159        H  0.36943744  0.76491429  0.26088540     0.19100
H160        H  0.41832951  0.69354265  0.42665841     0.15000
C161        C  0.40835569  0.72913204  0.12347638     0.30400
C162        C  0.41076632  0.69677690  0.15306597    -0.35900
C163        C  0.38953820  0.69152531  0.17395287     0.16400
C164        C  0.36754911  0.71642011  0.16621034     0.22200
C165        C  0.36513868  0.74856011  0.13669690    -0.34000
C166        C  0.38627211  0.75378683  0.11584506     0.16300
O167        O  0.42591539  0.74088725  0.10080772    -0.26000
C168        C  0.41484936  0.77337258  0.07844265     0.06100
C169        C  0.39018998  0.78270836  0.08647701    -0.30900
O170        O  0.35031529  0.70778018  0.18980364    -0.22800
C171        C  0.36127195  0.67700121  0.21327290    -0.02800
C172        C  0.38572531  0.66526310  0.20455465    -0.17200
H173        H  0.42804656  0.67769173  0.15960910     0.20800
H174        H  0.34804395  0.76875155  0.13070559     0.19200
H175        H  0.37720936  0.80795460  0.07301583     0.19100
H176        H  0.39890323  0.64219971  0.21933533     0.15000
C177        C  0.68706472  0.43694760  0.27149806     0.30400
C178        C  0.69523511  0.48199565  0.28952217    -0.35900
C179        C  0.68877637  0.53032690  0.27448746     0.16400
C180        C  0.67510667  0.53397622  0.24397042     0.22200
C181        C  0.66702383  0.48907727  0.22592329    -0.34000
C182        C  0.67365957  0.44093145  0.24080145     0.16300
O183        O  0.69111952  0.38776890  0.28060319    -0.26000
C184        C  0.68037966  0.35954844  0.25518187     0.06100
C185        C  0.66925712  0.39118268  0.22969273    -0.30900
O186        O  0.67118018  0.58283659  0.23448073    -0.22800
C187        C  0.68261774  0.61143162  0.25904797    -0.02800
C188        C  0.69381315  0.58055434  0.28473728    -0.17200
H189        H  0.70599018  0.47954032  0.31347465     0.20800
H190        H  0.65643906  0.49151306  0.20180502     0.19200
H191        H  0.65939762  0.37966173  0.20613005     0.19100
H192        H  0.70416972  0.59344881  0.30755923     0.15000
C193        C  0.64094692  0.26279369  0.18431767     0.30400
C194        C  0.61814333  0.25733894  0.16709863    -0.35900
C195        C  0.61878517  0.23237392  0.13432450     0.16400
C196        C  0.64039217  0.21408626  0.11941806     0.22200
C197        C  0.66327873  0.22030513  0.13642330    -0.34000
C198        C  0.66257867  0.24512184  0.16930404     0.16300
O199        O  0.64448032  0.28364222  0.21559320    -0.26000
C200        C  0.66877003  0.27946013  0.22094730     0.06100
C201        C  0.68095097  0.25595649  0.19264827    -0.30900
O202        O  0.63643546  0.18899498  0.08961113    -0.22800
C203        C  0.61200655  0.19135009  0.08549074    -0.02800
C204        C  0.60008946  0.21826555  0.11228165    -0.17200
H205        H  0.60102069  0.27059762  0.17879638     0.20800
H206        H  0.68032586  0.20569831  0.12521901     0.19200
H207        H  0.70048967  0.24819929  0.18938923     0.19100
H208        H  0.58043456  0.22459390  0.11568823     0.15000
C209        C  0.64622934  0.27424566  0.33263586     0.30400
C210        C  0.63423968  0.28567529  0.36446643    -0.35900
C211        C  0.62377858  0.24270807  0.38203006     0.16400
C212        C  0.62514352  0.19214213  0.36916254     0.22200
C213        C  0.63679189  0.18093256  0.33730771    -0.34000
C214        C  0.64716750  0.22370022  0.31987781     0.16300
O215        O  0.65768535  0.30786271  0.31194314    -0.26000
C216        C  0.66616770  0.27826770  0.28562475     0.06100
C217        C  0.65978225  0.22563293  0.28930282    -0.30900
O218        O  0.61498217  0.15760676  0.39022752    -0.22800
C219        C  0.60676740  0.18630169  0.41687104    -0.02800
C220        C  0.61159991  0.23956175  0.41325151    -0.17200
H221        H  0.63334799  0.32508907  0.37495919     0.20800
H222        H  0.63798504  0.14142220  0.32703765     0.19200
H223        H  0.66331070  0.19336072  0.27159775     0.19100
H224        H  0.60733115  0.27099521  0.43138861     0.15000
C225        C  0.34068521  0.42644902  0.23426792     0.30400
C226        C  0.33391311  0.47172731  0.21576032    -0.35900
C227        C  0.34044549  0.51962966  0.23152618     0.16400
C228        C  0.35278948  0.52265768  0.26319672     0.22200
C229        C  0.35958957  0.47749684  0.28160703    -0.34000
C230        C  0.35311446  0.42976126  0.26582656     0.16300
O231        O  0.33640478  0.37758861  0.22459615    -0.26000
C232        C  0.34624540  0.34890010  0.25028519     0.06100
C233        C  0.35713555  0.37988083  0.27648396    -0.30900
O234        O  0.35727786  0.57124260  0.27300458    -0.22800
C235        C  0.34764918  0.60032430  0.24743409    -0.02800
C236        C  0.33689928  0.56994595  0.22087280    -0.17200
H237        H  0.32426446  0.46974774  0.19084363     0.20800
H238        H  0.36933058  0.47944554  0.30645987     0.19200
H239        H  0.36682029  0.36806061  0.30002142     0.19100
H240        H  0.32796527  0.58327700  0.19706511     0.15000
C241        C  0.39325227  0.18453626  0.12720655     0.30400
C242        C  0.37775164  0.17256394  0.15544047    -0.35900
C243        C  0.37131421  0.21467086  0.17714526     0.16400
C244        C  0.37936823  0.26519446  0.17141525     0.22200
C245        C  0.39503878  0.27714924  0.14319624    -0.34000
C246        C  0.40167884  0.23485253  0.12154877     0.16300
O247        O  0.40151851  0.15100663  0.10376441    -0.26000
C248        C  0.41557899  0.17997187  0.08288392     0.06100
C249        C  0.41649062  0.23250827  0.09262805    -0.30900
O250        O  0.37115992  0.29837001  0.19530667    -0.22800
C251        C  0.35775747  0.26859106  0.21673965    -0.02800
C252        C  0.35730725  0.21607920  0.20661752    -0.17200
H253        H  0.37128518  0.13313355  0.16024363     0.20800
H254        H  0.40169196  0.31648662  0.13860358     0.19200
H255        H  0.42643044  0.26414325  0.08014542     0.19100
H256        H  0.34815116  0.18372169  0.21948262     0.15000
C257        C  0.38566521  0.22878689  0.31161438     0.30400
C258        C  0.40635126  0.20023970  0.32293130    -0.35900
C259        C  0.40840902  0.19302843  0.35928154     0.16400
C260        C  0.39136609  0.21284322  0.38278187     0.22200
C261        C  0.37092840  0.24191712  0.37148044    -0.34000
C262        C  0.36875360  0.24863164  0.33519997     0.16300
O263        O  0.37976815  0.23944681  0.27885589    -0.26000
C264        C  0.35873882  0.26648902  0.28140419     0.06100
C265        C  0.35106406  0.27313414  0.31602879    -0.30900
O266        O  0.39633098  0.19989302  0.41542861    -0.22800
C267        C  0.41682242  0.17153050  0.41283510    -0.02800
C268        C  0.42532590  0.16611030  0.37861616    -0.17200
H269        H  0.41966093  0.18412052  0.30467484     0.18400
H270        H  0.35740611  0.25736421  0.38967127     0.19200
H271        H  0.33490445  0.29369941  0.32556049     0.19100
H272        H  0.44131718  0.14466116  0.36937668     0.15000
C273        C  0.74781612  0.69727026  0.25522944     0.30400
C274        C  0.77321562  0.68582951  0.25694704    -0.35900
C275        C  0.78933275  0.72904175  0.25587027     0.16400
C276        C  0.78112546  0.77998532  0.25328280     0.22200
C277        C  0.75575663  0.79138149  0.25121713    -0.34000
C278        C  0.73965151  0.74821391  0.25224147     0.16300
O279        O  0.72943034  0.66318877  0.25720820    -0.26000
C280        C  0.70911237  0.69269972  0.25566537     0.06100
C281        C  0.71452557  0.74590401  0.25195847    -0.30900
O282        O  0.79942203  0.81437008  0.25311401    -0.22800
C283        C  0.81981837  0.78522496  0.25559528    -0.02800
C284        C  0.81446074  0.73166851  0.25726004    -0.17200
H285        H  0.77993603  0.64610965  0.25940531     0.20800
H286        H  0.74902596  0.83116501  0.24931255     0.19200
H287        H  0.70164650  0.77826593  0.25052826     0.19100
H288        H  0.82735128  0.69937880  0.25913687     0.15000
C289        C  0.86721338  0.75027142  0.33505985     0.30400
C290        C  0.86588922  0.71529318  0.36308502    -0.35900
C291        C  0.88652850  0.71377577  0.38520847     0.16400
C292        C  0.90711980  0.74499913  0.38057220     0.22200
C293        C  0.90840110  0.78052827  0.35240944    -0.34000
C294        C  0.88770298  0.78146742  0.32981707     0.16300
O295        O  0.85022810  0.75601288  0.31065652    -0.26000
C296        C  0.85976679  0.79096783  0.28873599     0.06100
C297        C  0.88312536  0.80860990  0.29963992    -0.30900
O298        O  0.92456207  0.73543973  0.40417230    -0.22800
C299        C  0.91483897  0.69751062  0.42379725    -0.02800
C300        C  0.89127702  0.68266690  0.41315220    -0.17200
H301        H  0.85002793  0.69004862  0.36690462     0.20800
H302        H  0.92454835  0.80470702  0.34796429     0.19200
H303        H  0.89497001  0.83719997  0.28724062     0.19100
H304        H  0.87952058  0.65254407  0.42409670     0.15000
C305        C  0.90735126  0.73330002  0.13409869     0.30400
C306        C  0.90905465  0.76870055  0.16236886    -0.35900
C307        C  0.88810861  0.77221745  0.18399433     0.16400
C308        C  0.86696083  0.74326932  0.17800478     0.22200
C309        C  0.86525173  0.70789769  0.14984675    -0.34000
C310        C  0.88619335  0.70407407  0.12841045     0.16300
O311        O  0.92470269  0.72338164  0.11068160    -0.26000
C312        C  0.91449379  0.68723282  0.08988272     0.06100
C313        C  0.89058718  0.67367411  0.09968685    -0.30900
O314        O  0.84965931  0.75236428  0.20147511    -0.22800
C315        C  0.85972062  0.78743033  0.22331142    -0.02800
C316        C  0.88374185  0.80129122  0.21343218    -0.17200
H317        H  0.92558686  0.79159882  0.16728729     0.20800
H318        H  0.84877936  0.68471937  0.14512111     0.19200
H319        H  0.87825960  0.64559333  0.08736504     0.19100
H320        H  0.89616509  0.82892017  0.22592598     0.15000
C321        C  0.24973520  0.76652363  0.25107039     0.30400
C322        C  0.27498204  0.77934539  0.24971951    -0.35900
C323        C  0.29148991  0.73692634  0.24998228     0.16400
C324        C  0.28378523  0.68553193  0.25173267     0.22200
C325        C  0.25856637  0.67275401  0.25311910    -0.34000
C326        C  0.24206302  0.71509619  0.25252907     0.16300
O327        O  0.23105075  0.79977828  0.25100386    -0.26000
C328        C  0.21096855  0.76935746  0.25224421     0.06100
C329        C  0.21695419  0.71614661  0.25322667    -0.30900
O330        O  0.30237734  0.65210828  0.25122210    -0.22800
C331        C  0.32245961  0.68227893  0.24886595    -0.02800
C332        C  0.31657595  0.73559916  0.24804331    -0.17200
H333        H  0.28131137  0.81953441  0.24832091     0.20800
H334        H  0.25223250  0.63254532  0.25424442     0.19200
H335        H  0.20472892  0.68282156  0.25524808     0.19100
H336        H  0.32881685  0.76881329  0.24546956     0.15000
C337        C  0.12641975  0.68791546  0.13804865     0.30400
C338        C  0.13774712  0.67547326  0.17007644    -0.35900
C339        C  0.14953183  0.71694073  0.18758250     0.16400
C340        C  0.14997667  0.76731676  0.17475925     0.22200
C341        C  0.13831119  0.78000608  0.14290695    -0.34000
C342        C  0.12658490  0.73842588  0.12523372     0.16300
O343        O  0.11561827  0.65453738  0.11644203    -0.26000
C344        C  0.10860604  0.68402297  0.08952281     0.06100
C345        C  0.11472072  0.73663500  0.09360561    -0.30900
O346        O  0.16224397  0.79978562  0.19548817    -0.22800
C347        C  0.16995920  0.76982197  0.22197298    -0.02800
C348        C  0.16233188  0.71784191  0.21829674    -0.17200
H349        H  0.13780131  0.63597960  0.18028827     0.20800
H350        H  0.13865929  0.81932773  0.13241076     0.19200
H351        H  0.11169981  0.76838406  0.07534948     0.19100
H352        H  0.16505857  0.68558717  0.23618082     0.15000
C353        C  0.14013413  0.71186086  0.38665771     0.30400
C354        C  0.16331453  0.71714653  0.37080067    -0.35900
C355        C  0.16348079  0.74183875  0.33810542     0.16400
C356        C  0.14238609  0.76048741  0.32205363     0.22200
C357        C  0.11910819  0.75577426  0.33813727    -0.34000
C358        C  0.11890046  0.73074221  0.37092434     0.16300
O359        O  0.13570246  0.68752128  0.41635460    -0.26000
C360        C  0.11132273  0.69095050  0.41991248     0.06100
C361        C  0.09982042  0.71764507  0.39256525    -0.30900
O362        O  0.14693328  0.78064679  0.29088424    -0.22800
C363        C  0.17128843  0.77444374  0.28677084    -0.02800
C364        C  0.18246264  0.75089679  0.31575352    -0.17200
H365        H  0.17999662  0.70191543  0.38275098     0.20800
H366        H  0.10233354  0.76959157  0.32566890     0.19200
H367        H  0.08025599  0.72477857  0.38869974     0.19100
H368        H  0.20174578  0.74135888  0.31990597     0.15000
C369        C  0.74624770  0.27940476  0.26002602     0.30400
C370        C  0.77136272  0.29357125  0.26113190    -0.35900
C371        C  0.78836618  0.25205623  0.25939539     0.16400
C372        C  0.78120120  0.20033220  0.25650643     0.22200
C373        C  0.75616560  0.18624138  0.25564942    -0.34000
C374        C  0.73923354  0.22760160  0.25774700     0.16300
O375        O  0.72712688  0.31161522  0.25989585    -0.26000
C376        C  0.70750525  0.27996285  0.25762413     0.06100
C377        C  0.71420132  0.22714392  0.25658545    -0.30900
O378        O  0.80011499  0.16792568  0.25443731    -0.22800
C379        C  0.81985947  0.19910443  0.25611746    -0.02800
C380        C  0.81352362  0.25198182  0.25938187    -0.17200
H381        H  0.77723463  0.33405017  0.26280600     0.20800
H382        H  0.75028362  0.14585042  0.25321086     0.19200
H383        H  0.70254073  0.19312435  0.25327596     0.19100
H384        H  0.82581411  0.28543316  0.26095548     0.15000
C385        C  0.84034147  0.04176234  0.26934217     0.30400
C386        C  0.83381094  0.99658883  0.28816642    -0.35900
C387        C  0.83890660  0.94849976  0.27163728     0.16400
C388        C  0.84979324  0.94516452  0.23900347     0.22200
C389        C  0.85628347  0.99022800  0.22026381    -0.34000
C390        C  0.85110112  0.03815695  0.23667527     0.16300
O391        O  0.83723181  0.09077514  0.27957714    -0.26000
C392        C  0.84610744  0.11915392  0.25307579     0.06100
C393        C  0.85493775  0.08800229  0.22563657    -0.30900
O394        O  0.85340565  0.89642589  0.22874104    -0.22800
C395        C  0.84473781  0.86768992  0.25509636    -0.02800
C396        C  0.83532059  0.89824642  0.28244166    -0.17200
H397        H  0.82539393  0.99876972  0.31387640     0.20800
H398        H  0.86486728  0.98806534  0.19466572     0.19200
H399        H  0.86294810  0.09998896  0.20094747     0.19100
H400        H  0.82750337  0.88508082  0.30700235     0.15000
C401        C  0.88775319  0.21581912  0.18565144     0.30400
C402        C  0.91060254  0.21841264  0.16831007    -0.35900
C403        C  0.91100993  0.24791478  0.13732227     0.16400
C404        C  0.89030990  0.27291970  0.12427670     0.22200
C405        C  0.86738153  0.26943583  0.14124768    -0.34000
C406        C  0.86705208  0.24016368  0.17227906     0.16300
O407        O  0.88335253  0.19190580  0.21558819    -0.26000
C408        C  0.85945017  0.20094646  0.22177257     0.06100
C409        C  0.84838587  0.23047998  0.19514988    -0.30900
O410        O  0.89502026  0.29983355  0.09563189    -0.22800
C411        C  0.91902199  0.29185186  0.09014366    -0.02800
C412        C  0.92994897  0.25965277  0.11512936    -0.17200
H413        H  0.92700490  0.19952796  0.17859244     0.20800
H414        H  0.85104961  0.28898494  0.13130061     0.19200
H415        H  0.82935075  0.24298149  0.19258213     0.19100
H416        H  0.94907470  0.24734090  0.11689489     0.15000
C417        C  0.90931095  0.23719361  0.37813655     0.30400
C418        C  0.91107381  0.20822944  0.34679112    -0.35900
C419        C  0.88944187  0.20558304  0.32627207     0.16400
C420        C  0.86762347  0.22938613  0.33608091     0.22200
C421        C  0.86575849  0.25764486  0.36749808    -0.34000
C422        C  0.88733715  0.26064831  0.38780106     0.16300
O423        O  0.92752377  0.24784193  0.40030909    -0.26000
C424        C  0.91692389  0.27847858  0.42429155     0.06100
C425        C  0.89198339  0.28748328  0.41789305    -0.30900
O426        O  0.84992490  0.22344533  0.31261296    -0.22800
C427        C  0.86038433  0.19558697  0.28703832    -0.02800
C428        C  0.88500802  0.18298089  0.29440353    -0.17200
H429        H  0.92823599  0.19025819  0.33852782     0.20800
H430        H  0.84881131  0.27711018  0.37514319     0.19200
H431        H  0.87935116  0.31196572  0.43262176     0.19100
H432        H  0.89777166  0.16056727  0.27850981     0.15000
C433        C  0.24027732  0.21939278  0.23095087     0.30400
C434        C  0.25792686  0.25098540  0.21431334    -0.35900
C435        C  0.28075068  0.25609792  0.23158862     0.16400
C436        C  0.28590793  0.23162496  0.26295691     0.22200
C437        C  0.26819494  0.20027015  0.27973053    -0.34000
C438        C  0.24533006  0.19523149  0.26247333     0.16300
O439        O  0.21763120  0.20999004  0.21966932    -0.26000
C440        C  0.20778379  0.17961402  0.24436250     0.06100
C441        C  0.22439468  0.16883001  0.27152785    -0.30900
O442        O  0.30871745  0.24039597  0.27383847    -0.22800
C443        C  0.31839152  0.27128013  0.24927271    -0.02800
C444        C  0.30165449  0.28234305  0.22235652    -0.17200
H445        H  0.25412728  0.27019339  0.18960588     0.20800
H446        H  0.27201894  0.18097166  0.30440137     0.19200
H447        H  0.22117691  0.14595392  0.29493829     0.19100
H448        H  0.30475918  0.30501589  0.19883909     0.15000
C449        C  0.17841982  0.92905208  0.26542105     0.30400
C450        C  0.17026942  0.97513440  0.28185891    -0.35900
C451        C  0.17582634  0.02206158  0.26454020     0.16400
C452        C  0.18864953  0.02376030  0.23335723     0.22200
C453        C  0.19698294  0.97764073  0.21704853    -0.34000
C454        C  0.19127066  0.93061756  0.23422973     0.16300
O455        O  0.17462775  0.88085790  0.27649995    -0.26000
C456        C  0.18509939  0.85071913  0.25204411     0.06100
C457        C  0.19583034  0.87991797  0.22515792    -0.30900
O458        O  0.19173820  0.07201290  0.22179904    -0.22800
C459        C  0.18061189  0.10195368  0.24577869    -0.02800
C460        C  0.17054489  0.07249135  0.27313673    -0.17200
H461        H  0.16006130  0.97442318  0.30625934     0.20800
H462        H  0.20700408  0.97832948  0.19250031     0.19200
H463        H  0.20527897  0.86559142  0.20203049     0.19100
H464        H  0.16109407  0.08589258  0.29647893     0.15000
C465        C  0.12892972  0.22890331  0.11173809     0.30400
C466        C  0.13319288  0.18276662  0.13088858    -0.35900
C467        C  0.14761396  0.18826663  0.16148119     0.16400
C468        C  0.15683008  0.23591695  0.17258196     0.22200
C469        C  0.15275305  0.28182605  0.15338800    -0.34000
C470        C  0.13865512  0.27624900  0.12268760     0.16300
O471        O  0.11551885  0.23332580  0.08282515    -0.26000
C472        C  0.11687677  0.28411795  0.07520587     0.06100
C473        C  0.13114225  0.31258804  0.09896847    -0.30900
O474        O  0.16931219  0.23256175  0.20218974    -0.22800
C475        C  0.16863182  0.18183262  0.21020845    -0.02800
C476        C  0.15518916  0.15233855  0.18570033    -0.17200
H477        H  0.12571914  0.14536781  0.12262809     0.20800
H478        H  0.15997854  0.31932793  0.16190210     0.19200
H479        H  0.13486238  0.35425103  0.09920189     0.19100
H480        H  0.15121996  0.11080670  0.18590603     0.15000
C481        C  0.16028154  0.22806235  0.32047258     0.30400
C482        C  0.16289204  0.25818635  0.35102419    -0.35900
C483        C  0.14130565  0.26603374  0.37050679     0.16400
C484        C  0.11862540  0.24546562  0.36084129     0.22200
C485        C  0.11600109  0.21523942  0.33013915    -0.34000
C486        C  0.13766119  0.20764345  0.31048385     0.16300
O487        O  0.17817329  0.21558836  0.29866057    -0.26000
C488        C  0.16705825  0.18636155  0.27425315     0.06100
C489        C  0.14169265  0.18068962  0.28013488    -0.30900
O490        O  0.10091789  0.25814148  0.38313396    -0.22800
C491        C  0.11252750  0.28737383  0.40711297    -0.02800
C492        C  0.13762014  0.29348176  0.40059546    -0.17200
H493        H  0.18055272  0.27443195  0.35904248     0.20800
H494        H  0.09835942  0.19890258  0.32212427     0.19200
H495        H  0.12837179  0.15896191  0.26454517     0.19100
H496        H  0.15115803  0.31514759  0.41584746     0.15000
C497        C  0.18086437  0.16172357  0.74361903    -0.01800
C498        C  0.84639841  0.17886466  0.75412533    -0.01800
In499      In  0.95415075  0.35576318  0.50416059     1.36900
C500        C  0.00279143  0.34603497  0.99748097     0.78200
O501        O  0.95265094  0.29431684  0.96077353    -0.60200
O502        O  0.92072111  0.33937255  0.97140314    -0.51100
C503        C  0.93202677  0.31510851  0.56024952     0.70900
O504        O  0.95409270  0.30435379  0.55234976    -0.46000
C505        C  0.95161425  0.46016439  0.50599695     0.75600
O506        O  0.99108097  0.32575771  0.52261815    -0.57800
O507        O  0.94703244  0.43359634  0.97887481    -0.47900
O508        O  0.98956007  0.36957945  0.97526569    -0.54300
C509        C  0.93049478  0.30425418  0.95295725     0.85800
O510        O  0.92164115  0.34722076  0.54006922    -0.56200
O511        O  0.95737522  0.43350803  0.53255572    -0.59500
In512      In  0.07878589  0.35368066  0.49347780     1.36900
C513        C  0.02981740  0.34504431  0.49508834     0.78200
O514        O  0.08859152  0.28317978  0.52641097    -0.60200
O515        O  0.10586511  0.35583988  0.53814569    -0.51100
C516        C  0.10013576  0.31107386  0.93744042     0.70900
O517        O  0.07799254  0.30143123  0.94545534    -0.46000
C518        C  0.08022751  0.45773080  0.99737001     0.75600
O519        O  0.04122894  0.36443461  0.96944778    -0.57800
O520        O  0.07260258  0.42941950  0.52206673    -0.47900
O521        O  0.04346463  0.32733868  0.51918016    -0.54300
C522        C  0.10354406  0.30812401  0.54570586     0.85800
O523        O  0.11105835  0.34266304  0.95771598    -0.56200
O524        O  0.08798215  0.43292739  0.97092992    -0.59500
C525        C  0.18454827  0.79099803  0.75330453    -0.01800
C526        C  0.84608606  0.80811235  0.75562650    -0.01800
In527      In  0.95091549  0.62220347  0.50504537     1.36900
C528        C  0.99963374  0.63140649  0.50172512     0.78200
O529        O  0.94821981  0.68034567  0.54948251    -0.60200
O530        O  0.91861985  0.62674846  0.54196253    -0.51100
C531        C  0.92791790  0.67175596  0.95285048     0.70900
O532        O  0.94799299  0.68833161  0.96569135    -0.46000
C533        C  0.95072005  0.51755456  0.00613901     0.75600
O534        O  0.98656585  0.62111243  0.97510620    -0.57800
O535        O  0.95432635  0.54479314  0.53329689    -0.47900
O536        O  0.98772733  0.63957224  0.52958437    -0.54300
C537        C  0.92742455  0.66420912  0.55969192     0.85800
O538        O  0.91975888  0.63061051  0.96680492    -0.56200
O539        O  0.94663007  0.54360914  0.97876646    -0.59500
In540      In  0.07542556  0.61910805  0.50182198     1.36900
C541        C  0.02663009  0.63049332  0.00095161     0.78200
O542        O  0.10940065  0.63647724  0.97053337    -0.60200
O543        O  0.07558442  0.67203701  0.95480911    -0.51100
C544        C  0.09681880  0.66154644  0.55819438     0.70900
O545        O  0.08625680  0.68878217  0.53506947    -0.46000
C546        C  0.07926311  0.51499647  0.49907629     0.75600
O547        O  0.03968408  0.64268022  0.52717818    -0.57800
O548        O  0.08779206  0.54414849  0.97542417    -0.47900
O549        O  0.03855456  0.61457051  0.97467792    -0.54300
C550        C  0.09838826  0.66607880  0.94917880     0.85800
O551        O  0.09658950  0.61300307  0.55236254    -0.56200
O552        O  0.06918287  0.53893486  0.52414491    -0.59500
C553        C  0.34530379  0.28912410  0.74968062    -0.01800
C554        C  0.68085408  0.29954481  0.75470678    -0.01800
In555      In  0.57555737  0.11806051  0.50391836     1.36900
C556        C  0.52665648  0.12628015  0.00795750     0.78200
O557        O  0.58504498  0.18876696  0.97157175    -0.60200
O558        O  0.59460122  0.11366397  0.95186990    -0.51100
C559        C  0.59904302  0.16510902  0.55656098     0.70900
O560        O  0.57589554  0.16725511  0.55274639    -0.46000
C561        C  0.58089163  0.01451728  0.50266655     0.75600
O562        O  0.53923885  0.10098760  0.52998287    -0.57800
O563        O  0.56881773  0.03920886  0.97976494    -0.47900
O564        O  0.53910460  0.14937707  0.98477523    -0.54300
C565        C  0.59505002  0.16247054  0.94747539     0.85800
O566        O  0.61018401  0.13820486  0.53379351    -0.56200
O567        O  0.59101449  0.04280865  0.52584791    -0.59500
In568      In  0.45119974  0.11023631  0.49993471     1.36900
C569        C  0.49962851  0.12517585  0.50756877     0.78200
O570        O  0.44482224  0.18016194  0.53525905    -0.60200
O571        O  0.42371299  0.11061264  0.54303520    -0.51100
C572        C  0.42880574  0.14857121  0.94351674     0.70900
O573        O  0.44984712  0.12769306  0.94230484    -0.46000
C574        C  0.44705307  0.00626423  0.99622047     0.75600
O575        O  0.48700317  0.14907929  0.98498978    -0.57800
O576        O  0.44261921  0.03193229  0.52366079    -0.47900
O577        O  0.48728329  0.09699251  0.52807184    -0.54300
C578        C  0.42841493  0.15673172  0.55287624     0.85800
O579        O  0.41888573  0.14873534  0.97333753    -0.56200
O580        O  0.45250794  0.03370885  0.97001259    -0.59500
C581        C  0.34869703  0.66013518  0.74702480    -0.01800
C582        C  0.68277921  0.67117273  0.75868846    -0.01800
In583      In  0.57712859  0.85355518  0.50854751     1.36900
C584        C  0.52823493  0.84094854  0.50750916     0.78200
O585        O  0.60456444  0.79823619  0.53361970    -0.60200
O586        O  0.57895357  0.83630971  0.56666123    -0.51100
C587        C  0.59922277  0.81149092  0.95345545     0.70900
O588        O  0.57896068  0.79422929  0.96520029    -0.46000
C589        C  0.58156778  0.95723200  0.00327193     0.75600
O590        O  0.54209349  0.82198134  0.98425757    -0.57800
O591        O  0.59300666  0.93142242  0.52623155    -0.47900
O592        O  0.53941637  0.86306293  0.53252984    -0.54300
C593        C  0.59714352  0.80588231  0.56438611     0.85800
O594        O  0.60821931  0.85011950  0.97003246    -0.56200
O595        O  0.56940221  0.92990277  0.98181649    -0.59500
In596      In  0.45233964  0.84566799  0.49756785     1.36900
C597        C  0.50125118  0.84029197  0.00463635     0.78200
O598        O  0.44441434  0.77494998  0.96407753    -0.60200
O599        O  0.43226379  0.84927953  0.94617863    -0.51100
C600        C  0.42795567  0.79848042  0.54927258     0.70900
O601        O  0.45052886  0.79041845  0.54329094    -0.46000
C602        C  0.44739807  0.94902335  0.49569838     0.75600
O603        O  0.48756452  0.86210762  0.52695049    -0.57800
O604        O  0.45612920  0.92317174  0.97038480    -0.47900
O605        O  0.48996189  0.82013733  0.97893287    -0.54300
C606        C  0.43336449  0.80075017  0.94069068     0.85800
O607        O  0.41769957  0.83034779  0.52862171    -0.56200
O608        O  0.44030283  0.92194295  0.52139892    -0.59500
C609        C  0.63951786  0.77046684  0.88729755     0.30400
C610        C  0.66206152  0.76757465  0.86941628    -0.35900
C611        C  0.66250501  0.73451000  0.84003061     0.16400
C612        C  0.64217732  0.70657518  0.82858244     0.22200
C613        C  0.61957878  0.70900946  0.84672650    -0.34000
C614        C  0.61917806  0.74177378  0.87647621     0.16300
O615        O  0.63509412  0.79903317  0.91543543    -0.26000
C616        C  0.61167860  0.78819718  0.92305849     0.06100
C617        C  0.60077969  0.75276598  0.89979546    -0.30900
O618        O  0.64667147  0.67990748  0.79950629    -0.22800
C619        C  0.67025658  0.69094803  0.79213470    -0.02800
C620        C  0.68102816  0.72412011  0.81715316    -0.17200
H621        H  0.67812730  0.78977478  0.87774855     0.20800
H622        H  0.60345142  0.68720763  0.83816522     0.19200
H623        H  0.58207035  0.73756858  0.90003218     0.19100
H624        H  0.69964225  0.73961451  0.81828308     0.15000
C625        C  0.63481586  0.74100238  0.62515308     0.30400
C626        C  0.65484057  0.71045978  0.63651116    -0.35900
C627        C  0.65761236  0.70559548  0.67294868     0.16400
C628        C  0.64180084  0.72908263  0.69659637     0.22200
C629        C  0.62174773  0.75951725  0.68525664    -0.34000
C630        C  0.61896435  0.76442967  0.64882373     0.16300
O631        O  0.62905218  0.75177168  0.59231117    -0.26000
C632        C  0.60921550  0.78232671  0.59502528     0.06100
C633        C  0.60211112  0.79158621  0.62952247    -0.30900
O634        O  0.64814163  0.72016409  0.72945108    -0.22800
C635        C  0.66829400  0.69035563  0.72696303    -0.02800
C636        C  0.67501303  0.68020805  0.69228259    -0.17200
H637        H  0.66751008  0.69221721  0.61823964     0.20800
H638        H  0.60932905  0.77845566  0.70356565     0.19200
H639        H  0.58700618  0.81557743  0.63895150     0.19100
H640        H  0.69065948  0.65781305  0.68288121     0.15000
C641        C  0.38200128  0.68807412  0.82607981     0.30400
C642        C  0.39269518  0.67765189  0.85891051    -0.35900
C643        C  0.40429507  0.72023810  0.87552154     0.16400
C644        C  0.40499883  0.76970620  0.86100871     0.22200
C645        C  0.39461600  0.77986088  0.82804989    -0.34000
C646        C  0.38324975  0.73722449  0.81140073     0.16300
O647        O  0.36995952  0.65441960  0.80602889    -0.26000
C648        C  0.36345355  0.68221410  0.77793150     0.06100
C649        C  0.37149511  0.73408028  0.78002899    -0.30900
O650        O  0.41566185  0.80434643  0.88177170    -0.22800
C651        C  0.42216634  0.77656348  0.90970778    -0.02800
C652        C  0.41575606  0.72396378  0.90728617    -0.17200
H653        H  0.39185657  0.63924364  0.87076730     0.20800
H654        H  0.39509205  0.81843795  0.81640312     0.19200
H655        H  0.36943706  0.76491584  0.76088614     0.19100
H656        H  0.41833043  0.69354175  0.92665791     0.15000
C657        C  0.40835590  0.72913371  0.62347648     0.30400
C658        C  0.41076662  0.69677910  0.65306631    -0.35900
C659        C  0.38953847  0.69152725  0.67395308     0.16400
C660        C  0.36754932  0.71642172  0.66621039     0.22200
C661        C  0.36513880  0.74856128  0.63669677    -0.34000
C662        C  0.38627223  0.75378795  0.61584492     0.16300
O663        O  0.42591556  0.74088882  0.60080774    -0.26000
C664        C  0.41484940  0.77337347  0.57844237     0.06100
C665        C  0.39018998  0.78270898  0.58647663    -0.30900
O666        O  0.35031548  0.70778175  0.68980365    -0.22800
C667        C  0.36127217  0.67700293  0.71327296    -0.02800
C668        C  0.38572558  0.66526507  0.70455485    -0.17200
H669        H  0.42804694  0.67769437  0.65960967     0.20800
H670        H  0.34804400  0.76875233  0.63070532     0.19200
H671        H  0.37720930  0.80795481  0.57301526     0.19100
H672        H  0.39890352  0.64220179  0.71933560     0.15000
C673        C  0.68706533  0.43694764  0.77149698     0.30400
C674        C  0.69523586  0.48199556  0.78952113    -0.35900
C675        C  0.68877690  0.53032694  0.77448681     0.16400
C676        C  0.67510694  0.53397652  0.74397005     0.22200
C677        C  0.66702401  0.48907768  0.72592278    -0.34000
C678        C  0.67365996  0.44093169  0.74080059     0.16300
O679        O  0.69112015  0.38776889  0.78060196    -0.26000
C680        C  0.68038018  0.35954853  0.75518069     0.06100
C681        C  0.66925748  0.39118292  0.72969175    -0.30900
O682        O  0.67118038  0.58283701  0.73448064    -0.22800
C683        C  0.68261816  0.61143186  0.75904780    -0.02800
C684        C  0.69381374  0.58055432  0.78473681    -0.17200
H685        H  0.70599113  0.47954006  0.81347339     0.20800
H686        H  0.65643906  0.49151370  0.70180472     0.19200
H687        H  0.65939780  0.37966209  0.70612923     0.19100
H688        H  0.70417054  0.59344857  0.80755859     0.15000
C689        C  0.64094756  0.26279353  0.68431633     0.30400
C690        C  0.61814402  0.25733933  0.66709709    -0.35900
C691        C  0.61878577  0.23237320  0.63432335     0.16400
C692        C  0.64039264  0.21408386  0.61941743     0.22200
C693        C  0.66327916  0.22030195  0.63642295    -0.34000
C694        C  0.66257920  0.24511995  0.66930329     0.16300
O695        O  0.64448098  0.28364302  0.71559157    -0.26000
C696        C  0.66877060  0.27945995  0.72094609     0.06100
C697        C  0.68095145  0.25595457  0.69264762    -0.30900
O698        O  0.63643578  0.18899211  0.58961070    -0.22800
C699        C  0.61200691  0.19134860  0.58548997    -0.02800
C700        C  0.60009003  0.21826543  0.61228043    -0.17200
H701        H  0.60102144  0.27059936  0.67879437     0.20800
H702        H  0.68032620  0.20569379  0.62521911     0.19200
H703        H  0.70049008  0.24819611  0.68938899     0.19100
H704        H  0.58043518  0.22459514  0.61568667     0.15000
C705        C  0.64622994  0.27424613  0.83263497     0.30400
C706        C  0.63424045  0.28567592  0.86446566    -0.35900
C707        C  0.62377968  0.24270873  0.88202976     0.16400
C708        C  0.62514482  0.19214263  0.86916260     0.22200
C709        C  0.63679305  0.18093285  0.83730767    -0.34000
C710        C  0.64716825  0.22370053  0.81987723     0.16300
O711        O  0.65768575  0.30786311  0.81194194    -0.26000
C712        C  0.66616808  0.27826793  0.78562362     0.06100
C713        C  0.65978277  0.22563313  0.78930201    -0.30900
O714        O  0.61498357  0.15760740  0.89022782    -0.22800
C715        C  0.60676867  0.18630255  0.91687117    -0.02800
C716        C  0.61160102  0.23956266  0.91325128    -0.17200
H717        H  0.63334860  0.32508986  0.87495815     0.20800
H718        H  0.63798631  0.14142237  0.82703787     0.19200
H719        H  0.66331129  0.19336079  0.77159709     0.19100
H720        H  0.60733207  0.27099637  0.93138807     0.15000
C721        C  0.34068576  0.42645029  0.73426775     0.30400
C722        C  0.33391398  0.47172844  0.71575973    -0.35900
C723        C  0.34044609  0.51963092  0.73152564     0.16400
C724        C  0.35278956  0.52265915  0.76319658     0.22200
C725        C  0.35958937  0.47749851  0.78160725    -0.34000
C726        C  0.35311451  0.42976284  0.76582678     0.16300
O727        O  0.33640541  0.37758978  0.72459617    -0.26000
C728        C  0.34624559  0.34890156  0.75028571     0.06100
C729        C  0.35713535  0.37988257  0.77648461    -0.30900
O730        O  0.35727773  0.57124407  0.77300450    -0.22800
C731        C  0.34764944  0.60032564  0.74743370    -0.02800
C732        C  0.33689997  0.56994720  0.72087208    -0.17200
H733        H  0.32426572  0.46974870  0.69084273     0.20800
H734        H  0.36932995  0.47944743  0.80646044     0.19200
H735        H  0.36681969  0.36806267  0.80002249     0.19100
H736        H  0.32796629  0.58327817  0.69706412     0.15000
C737        C  0.39325285  0.18453678  0.62720788     0.30400
C738        C  0.37775241  0.17256463  0.65544205    -0.35900
C739        C  0.37131499  0.21467172  0.67714669     0.16400
C740        C  0.37936893  0.26519530  0.67141645     0.22200
C741        C  0.39503936  0.27714989  0.64319724    -0.34000
C742        C  0.40167935  0.23485305  0.62154983     0.16300
O743        O  0.40151879  0.15100711  0.60376554    -0.26000
C744        C  0.41557900  0.17997231  0.58288465     0.06100
C745        C  0.41649078  0.23250869  0.59262876    -0.30900
O746        O  0.37116046  0.29837108  0.69530763    -0.22800
C747        C  0.35775789  0.26859231  0.71674061    -0.02800
C748        C  0.35730783  0.21608033  0.70661877    -0.17200
H749        H  0.37128592  0.13313430  0.66024537     0.20800
H750        H  0.40169241  0.31648731  0.63860422     0.19200
H751        H  0.42643045  0.26414359  0.58014575     0.19100
H752        H  0.34815167  0.18372295  0.71948391     0.15000
C753        C  0.38566558  0.22878884  0.81161516     0.30400
C754        C  0.40635164  0.20024161  0.82293189    -0.35900
C755        C  0.40840931  0.19302971  0.85928205     0.16400
C756        C  0.39136634  0.21284405  0.88278249     0.22200
C757        C  0.37092867  0.24191815  0.87148124    -0.34000
C758        C  0.36875392  0.24863321  0.83520081     0.16300
O759        O  0.37976851  0.23944889  0.77885673    -0.26000
C760        C  0.35873913  0.26649084  0.78140507     0.06100
C761        C  0.35106433  0.27313569  0.81602969    -0.30900
O762        O  0.39633122  0.19989327  0.91542912    -0.22800
C763        C  0.41682267  0.17153079  0.91283537    -0.02800
C764        C  0.42532618  0.16611125  0.87861642    -0.17200
H765        H  0.41966135  0.18412281  0.80467537     0.18400
H766        H  0.35740634  0.25736491  0.88967216     0.19200
H767        H  0.33490461  0.29370050  0.82556142     0.19100
H768        H  0.44131747  0.14466234  0.86937679     0.15000
C769        C  0.74781669  0.69727055  0.75522915     0.30400
C770        C  0.77321619  0.68582982  0.75694695    -0.35900
C771        C  0.78933330  0.72904208  0.75587034     0.16400
C772        C  0.78112601  0.77998562  0.75328272     0.22200
C773        C  0.75575719  0.79138178  0.75121676    -0.34000
C774        C  0.73965208  0.74821417  0.75224104     0.16300
O775        O  0.72943090  0.66318907  0.75720804    -0.26000
C776        C  0.70911293  0.69270000  0.75566513     0.06100
C777        C  0.71452614  0.74590428  0.75195808    -0.30900
O778        O  0.79942258  0.81437041  0.75311407    -0.22800
C779        C  0.81981892  0.78522531  0.75559557    -0.02800
C780        C  0.81446129  0.73166888  0.75726038    -0.17200
H781        H  0.77993659  0.64610999  0.75940537     0.20800
H782        H  0.74902654  0.83116525  0.74931211     0.19200
H783        H  0.70164708  0.77826623  0.75052784     0.19100
H784        H  0.82735182  0.69937918  0.75913736     0.15000
C785        C  0.86721384  0.75027204  0.83506040     0.30400
C786        C  0.86588960  0.71529405  0.86308567    -0.35900
C787        C  0.88652887  0.71377644  0.88520910     0.16400
C788        C  0.90712030  0.74499940  0.88057271     0.22200
C789        C  0.90840171  0.78052833  0.85240983    -0.34000
C790        C  0.88770356  0.78146767  0.82981747     0.16300
O791        O  0.85022854  0.75601363  0.81065711    -0.26000
C792        C  0.85976732  0.79096823  0.78873641     0.06100
C793        C  0.88312597  0.80860999  0.79964021    -0.30900
O794        O  0.92456258  0.73543961  0.90417271    -0.22800
C795        C  0.91483936  0.69751069  0.92379771    -0.02800
C796        C  0.89127732  0.68266749  0.91315281    -0.17200
H797        H  0.85002822  0.69004973  0.86690538     0.20800
H798        H  0.92454908  0.80470669  0.84796454     0.19200
H799        H  0.89497072  0.83719970  0.78724072     0.19100
H800        H  0.87952077  0.65254490  0.92409740     0.15000
C801        C  0.90735143  0.73330164  0.63409812     0.30400
C802        C  0.90905482  0.76870234  0.66236820    -0.35900
C803        C  0.88810903  0.77221834  0.68399423     0.16400
C804        C  0.86696143  0.74326936  0.67800518     0.22200
C805        C  0.86525232  0.70789766  0.64984720    -0.34000
C806        C  0.88619371  0.70407483  0.62841043     0.16300
O807        O  0.92470271  0.72338364  0.61068073    -0.26000
C808        C  0.91449388  0.68723423  0.58988223     0.06100
C809        C  0.89058749  0.67367475  0.59968689    -0.30900
O810        O  0.84966004  0.75236388  0.70147577    -0.22800
C811        C  0.85972122  0.78743051  0.72331177    -0.02800
C812        C  0.88374230  0.80129211  0.71343211    -0.17200
H813        H  0.92558687  0.79160137  0.66728616     0.20800
H814        H  0.84878011  0.68471865  0.64512193     0.19200
H815        H  0.87826005  0.64559325  0.58736555     0.19100
H816        H  0.89616539  0.82892168  0.72592555     0.15000
C817        C  0.24973499  0.76652368  0.75107000     0.30400
C818        C  0.27498179  0.77934573  0.74971918    -0.35900
C819        C  0.29148979  0.73692693  0.74998189     0.16400
C820        C  0.28378524  0.68553237  0.75173193     0.22200
C821        C  0.25856641  0.67275416  0.75311819    -0.34000
C822        C  0.24206293  0.71509612  0.75252845     0.16300
O823        O  0.23105046  0.79977809  0.75100375    -0.26000
C824        C  0.21096834  0.76935708  0.75224405     0.06100
C825        C  0.21695408  0.71614627  0.75322620    -0.30900
O826        O  0.30237745  0.65210896  0.75122128    -0.22800
C827        C  0.32245965  0.68227990  0.74886557    -0.02800
C828        C  0.31657586  0.73560005  0.74804316    -0.17200
H829        H  0.28131103  0.81953492  0.74832078     0.20800
H830        H  0.25223263  0.63254534  0.75424327     0.19200
H831        H  0.20472884  0.68282109  0.75524738     0.19100
H832        H  0.32881672  0.76881430  0.74546972     0.15000
C833        C  0.12641920  0.68791602  0.63804849     0.30400
C834        C  0.13774648  0.67547361  0.67007630    -0.35900
C835        C  0.14953159  0.71694071  0.68758216     0.16400
C836        C  0.14997680  0.76731665  0.67475877     0.22200
C837        C  0.13831140  0.78000622  0.64290646    -0.34000
C838        C  0.12658474  0.73842634  0.62523339     0.16300
O839        O  0.11561753  0.65453815  0.61644196    -0.26000
C840        C  0.10860555  0.68402377  0.58952264     0.06100
C841        C  0.11472058  0.73663564  0.59360527    -0.30900
O842        O  0.16224419  0.79978530  0.69548771    -0.22800
C843        C  0.16995912  0.76982160  0.72197266    -0.02800
C844        C  0.16233158  0.71784167  0.71829647    -0.17200
H845        H  0.13780028  0.63598005  0.68028831     0.20800
H846        H  0.13865979  0.81932780  0.63241022     0.19200
H847        H  0.11169999  0.76838462  0.57534896     0.19100
H848        H  0.16505799  0.68558701  0.73618068     0.15000
C849        C  0.14013386  0.71186086  0.88665756     0.30400
C850        C  0.16331421  0.71714608  0.87080035    -0.35900
C851        C  0.16348045  0.74183814  0.83810507     0.16400
C852        C  0.14238579  0.76048720  0.82205340     0.22200
C853        C  0.11910792  0.75577458  0.83813726    -0.34000
C854        C  0.11890020  0.73074261  0.87092439     0.16300
O855        O  0.13570223  0.68752126  0.91635445    -0.26000
C856        C  0.11132253  0.69095084  0.91991255     0.06100
C857        C  0.09982019  0.71764570  0.89256546    -0.30900
O858        O  0.14693302  0.78064670  0.79088404    -0.22800
C859        C  0.17128814  0.77444324  0.78677056    -0.02800
C860        C  0.18246230  0.75089594  0.81575314    -0.17200
H861        H  0.17999629  0.70191477  0.88275055     0.20800
H862        H  0.10233327  0.76959232  0.82566909     0.19200
H863        H  0.08025576  0.72477930  0.88870006     0.19100
H864        H  0.20174541  0.74135772  0.81990555     0.15000
C865        C  0.74624822  0.27940498  0.76002531     0.30400
C866        C  0.77136324  0.29357159  0.76113102    -0.35900
C867        C  0.78836673  0.25205657  0.75939495     0.16400
C868        C  0.78120181  0.20033246  0.75650637     0.22200
C869        C  0.75616623  0.18624155  0.75564955    -0.34000
C870        C  0.73923412  0.22760174  0.75774685     0.16300
O871        O  0.72712738  0.31161537  0.75989469    -0.26000
C872        C  0.70750576  0.27996291  0.75762324     0.06100
C873        C  0.71420190  0.22714397  0.75658524    -0.30900
O874        O  0.80011562  0.16792594  0.75443749    -0.22800
C875        C  0.81986008  0.19910475  0.75611752    -0.02800
C876        C  0.81352418  0.25198218  0.75938153    -0.17200
H877        H  0.77723512  0.33405057  0.76280465     0.20800
H878        H  0.75028430  0.14585052  0.75321131     0.19200
H879        H  0.70254139  0.19312422  0.75327609     0.19100
H880        H  0.82581465  0.28543360  0.76095486     0.15000
C881        C  0.84034229  0.04176275  0.76934258     0.30400
C882        C  0.83381171  0.99658925  0.78816683    -0.35900
C883        C  0.83890719  0.94850015  0.77163760     0.16400
C884        C  0.84979368  0.94516488  0.73900369     0.22200
C885        C  0.85628390  0.99022834  0.72026401    -0.34000
C886        C  0.85110177  0.03815732  0.73667557     0.16300
O887        O  0.83723270  0.09077556  0.77957756    -0.26000
C888        C  0.84610817  0.11915430  0.75307608     0.06100
C889        C  0.85493837  0.08800266  0.72563681    -0.30900
O890        O  0.85340604  0.89642623  0.72874125    -0.22800
C891        C  0.84473833  0.86769026  0.75509665    -0.02800
C892        C  0.83532118  0.89824679  0.78244201    -0.17200
H893        H  0.82539480  0.99877017  0.81387688     0.20800
H894        H  0.86486752  0.98806563  0.69466577     0.19200
H895        H  0.86294853  0.09998937  0.70094759     0.19100
H896        H  0.82750407  0.88508118  0.80700274     0.15000
C897        C  0.88775368  0.21581994  0.68565162     0.30400
C898        C  0.91060302  0.21841402  0.66831024    -0.35900
C899        C  0.91101014  0.24791562  0.63732220     0.16400
C900        C  0.89030991  0.27291957  0.62427644     0.22200
C901        C  0.86738157  0.26943504  0.64124740    -0.34000
C902        C  0.86705237  0.24016343  0.67227898     0.16300
O903        O  0.88335319  0.19190695  0.71558855    -0.26000
C904        C  0.85945074  0.20094681  0.72177274     0.06100
C905        C  0.84838624  0.23047941  0.69514979    -0.30900
O906        O  0.89502005  0.29983318  0.59563145    -0.22800
C907        C  0.91902183  0.29185220  0.59014327    -0.02800
C908        C  0.92994908  0.25965390  0.61512920    -0.17200
H909        H  0.92700556  0.19953022  0.67859276     0.20800
H910        H  0.85104945  0.28898327  0.63130015     0.19200
H911        H  0.82935099  0.24298008  0.69258184     0.19100
H912        H  0.94907490  0.24734280  0.61689485     0.15000
C913        C  0.90931118  0.23719330  0.87813724     0.30400
C914        C  0.91107407  0.20822899  0.84679189    -0.35900
C915        C  0.88944228  0.20558331  0.82627248     0.16400
C916        C  0.86762393  0.22938685  0.83608105     0.22200
C917        C  0.86575890  0.25764564  0.86749820    -0.34000
C918        C  0.88733746  0.26064862  0.88780144     0.16300
O919        O  0.92752396  0.24784129  0.90030992    -0.26000
C920        C  0.91692413  0.27847835  0.92429218     0.06100
C921        C  0.89198370  0.28748362  0.91789343    -0.30900
O922        O  0.84992544  0.22344614  0.81261297    -0.22800
C923        C  0.86038491  0.19558755  0.78703848    -0.02800
C924        C  0.88500853  0.18298120  0.79440391    -0.17200
H925        H  0.92823618  0.19025715  0.83852890     0.20800
H926        H  0.84881177  0.27711130  0.87514314     0.19200
H927        H  0.87935155  0.31196655  0.93262192     0.19100
H928        H  0.89777217  0.16056726  0.77851038     0.15000
C929        C  0.24027783  0.21939310  0.73095110     0.30400
C930        C  0.25792728  0.25098634  0.71431393    -0.35900
C931        C  0.28075103  0.25609890  0.73158933     0.16400
C932        C  0.28590834  0.23162553  0.76295746     0.22200
C933        C  0.26819543  0.20027014  0.77973077    -0.34000
C934        C  0.24533062  0.19523133  0.76247340     0.16300
O935        O  0.21763179  0.20999012  0.71966936    -0.26000
C936        C  0.20778445  0.17961345  0.74436224     0.06100
C937        C  0.22439535  0.16882917  0.77152754    -0.30900
O938        O  0.30871783  0.24039671  0.77383911    -0.22800
C939        C  0.31839183  0.27128133  0.74927353    -0.02800
C940        C  0.30165476  0.28234441  0.72235742    -0.17200
H941        H  0.25412770  0.27019472  0.68960657     0.20800
H942        H  0.27201946  0.18097126  0.80440148     0.19200
H943        H  0.22117763  0.14595251  0.79493773     0.19100
H944        H  0.30475940  0.30501761  0.69884013     0.15000
C945        C  0.17841979  0.92905157  0.76542073     0.30400
C946        C  0.17026946  0.97513399  0.78185847    -0.35900
C947        C  0.17582661  0.02206105  0.76453980     0.16400
C948        C  0.18865000  0.02375960  0.73335698     0.22200
C949        C  0.19698334  0.97763992  0.71704837    -0.34000
C950        C  0.19127079  0.93061686  0.73422953     0.16300
O951        O  0.17462751  0.88085747  0.77649962    -0.26000
C952        C  0.18509920  0.85071859  0.75204391     0.06100
C953        C  0.19583037  0.87991724  0.72515781    -0.30900
O954        O  0.19173888  0.07201219  0.72179885    -0.22800
C955        C  0.18061246  0.10195309  0.74577833    -0.02800
C956        C  0.17054520  0.07249084  0.77313623    -0.17200
H957        H  0.16006117  0.97442295  0.80625877     0.20800
H958        H  0.20700465  0.97832854  0.69250027     0.19200
H959        H  0.20527908  0.86559049  0.70203053     0.19100
H960        H  0.16109419  0.08589212  0.79647827     0.15000
C961        C  0.12892937  0.22890380  0.61173871     0.30400
C962        C  0.13319267  0.18276693  0.63088897    -0.35900
C963        C  0.14761416  0.18826664  0.66148124     0.16400
C964        C  0.15683049  0.23591681  0.67258191     0.22200
C965        C  0.15275331  0.28182608  0.65338817    -0.34000
C966        C  0.13865500  0.27624932  0.62268808     0.16300
O967        O  0.11551831  0.23332652  0.58282594    -0.26000
C968        C  0.11687639  0.28411864  0.57520661     0.06100
C969        C  0.13114211  0.31258851  0.59896905    -0.30900
O970        O  0.16931293  0.23256135  0.70218941    -0.22800
C971        C  0.16863251  0.18183220  0.71020807    -0.02800
C972        C  0.15518955  0.15233835  0.68570015    -0.17200
H973        H  0.12571878  0.14536826  0.62262857     0.20800
H974        H  0.15997902  0.31932780  0.66190213     0.19200
H975        H  0.13486247  0.35425139  0.59920233     0.19100
H976        H  0.15122015  0.11080663  0.68590594     0.15000
C977        C  0.16028207  0.22806175  0.82047221     0.30400
C978        C  0.16289254  0.25818561  0.85102390    -0.35900
C979        C  0.14130607  0.26603351  0.87050625     0.16400
C980        C  0.11862577  0.24546600  0.86084045     0.22200
C981        C  0.11600148  0.21523990  0.83013825    -0.34000
C982        C  0.13766166  0.20764344  0.81048318     0.16300
O983        O  0.17817389  0.21558734  0.79866042    -0.26000
C984        C  0.16705884  0.18636096  0.77425277     0.06100
C985        C  0.14169316  0.18068959  0.78013422    -0.30900
O986        O  0.10091819  0.25814219  0.88313296    -0.22800
C987        C  0.11252784  0.28737408  0.90711220    -0.02800
C988        C  0.13762055  0.29348145  0.90059496    -0.17200
H989        H  0.18055326  0.27443069  0.85904245     0.20800
H990        H  0.09835977  0.19890346  0.82212315     0.19200
H991        H  0.12837227  0.15896228  0.76454431     0.19100
H992        H  0.15115847  0.31514675  0.91584722     0.15000
loop_ 
_geom_bond_atom_site_label_1 
_geom_bond_atom_site_label_2 
_geom_bond_distance 
_geom_bond_site_symmetry_2 
_ccdc_geom_bond_type 
C1          C440   1.524       .  S
C1          C459   1.529       .  S
C1          C475   1.523       .  S
C1          C488   1.522       .  S
C2          C379   1.527       .  S
C2          C392   1.525       .  S
C2          C408   1.531       .  S
C2          C427   1.521       .  S
In3          O14   2.241       .  S
In3           O8   2.261       .  S
In3          O10   2.250       .  S
In3          O15   2.263       .  S
In3         O501   2.275   1_554  S
In3         O502   2.230   1_554  S
In3         O507   2.245   1_554  S
In3         O508   2.239   1_554  S
C4           O12   1.261   1_455  A
C4          O506   1.262   1_455  A
C4          C513   1.464       .  S
O5         In499   2.275       .  S
O5           C13   1.259       .  A
O6         In499   2.230       .  S
O6           C13   1.255       .  A
C7           O14   1.258       .  A
C7            O8   1.261       .  A
C7          C411   1.467       .  S
C9           O15   1.260       .  A
C9          O507   1.257   1_554  A
C9          C533   1.466       .  S
O10         C500   1.262   1_654  A
O11        In499   2.245       .  S
O11         C505   1.257       .  A
O12        In499   2.239       .  S
C13         C424   1.466       .  S
In16         O18   2.261   1_556  S
In16         O19   2.241   1_556  S
In16         O24   2.242   1_556  S
In16         O25   2.251   1_556  S
In16        O523   2.234       .  S
In16        O517   2.260       .  S
In16        O519   2.241       .  S
In16        O524   2.257       .  S
C17          O25   1.261   1_556  A
C17         O519   1.260       .  A
C17         C500   1.464       .  S
O18          C26   1.261       .  A
O19          C26   1.259       .  A
C20          O27   1.259       .  A
C20          O21   1.260       .  A
C20         C491   1.466       .  S
O21        In512   2.260       .  S
C22          O28   1.261       .  A
C22         O520   1.259       .  A
C22         C546   1.464       .  S
O23        In512   2.241       .  S
O23         C513   1.260       .  A
O24         C518   1.259   1_554  A
C26         C472   1.469       .  S
O27        In512   2.234       .  S
O28        In512   2.257       .  S
C29         C328   1.532       .  S
C29         C347   1.525       .  S
C29         C363   1.526       .  S
C29         C456   1.526       .  S
C30         C283   1.534       .  S
C30         C296   1.526       .  S
C30         C315   1.529       .  S
C30         C395   1.523       .  S
In31         O33   2.252       .  S
In31         O34   2.248       .  S
In31         O39   2.262       .  S
In31         O40   2.238       .  S
In31        O538   2.233   1_554  S
In31        O532   2.268   1_554  S
In31        O534   2.242   1_554  S
In31        O539   2.250   1_554  S
C32          O40   1.260       .  A
C32         O534   1.260   1_554  A
C32         C541   1.459   1_655  S
O33          C41   1.260       .  A
O34          C41   1.260       .  A
C35          O42   1.259       .  A
C35          O36   1.260       .  A
C35         C299   1.469       .  S
O36        In527   2.268       .  S
C37          O43   1.258       .  A
C37         O535   1.259       .  A
C37         C505   1.466       .  S
O38        In527   2.242       .  S
O38         C528   1.260       .  A
O39         C533   1.259       .  A
C41         C312   1.469       .  S
O42        In527   2.233       .  S
O43        In527   2.250       .  S
In44         O55   2.242       .  S
In44         O49   2.255       .  S
In44         O51   2.244       .  S
In44         O56   2.245       .  S
In44        O542   2.237   1_554  S
In44        O543   2.248   1_554  S
In44        O548   2.261   1_554  S
In44        O549   2.244   1_554  S
C45          O53   1.259       .  A
C45         O547   1.259       .  A
C45         C528   1.459   1_455  S
O46        In540   2.237       .  S
O46          C54   1.261       .  A
O47        In540   2.248       .  S
O47          C54   1.261       .  A
C48          O55   1.258       .  A
C48          O49   1.260       .  A
C48         C344   1.465       .  S
C50          O56   1.258   1_556  A
C50         O548   1.259       .  A
C50         C518   1.464       .  S
O51         C541   1.259       .  A
O52        In540   2.261       .  S
O52         C546   1.259       .  A
O53        In540   2.244       .  S
C54         C360   1.464       .  S
C57         C232   1.527       .  S
C57         C251   1.518       .  S
C57         C264   1.524       .  S
C57         C443   1.523       .  S
C58         C184   1.532       .  S
C58         C200   1.527       .  S
C58         C216   1.524       .  S
C58         C376   1.529       .  S
In59         O70   2.244       .  S
In59         O64   2.240       .  S
In59         O66   2.245       .  S
In59         O71   2.258       .  S
In59        O557   2.250   1_554  S
In59        O558   2.239   1_554  S
In59        O563   2.239   1_554  S
In59        O564   2.247   1_554  S
C60          O68   1.260       .  A
C60         O562   1.259       .  A
C60         C569   1.460       .  S
O61        In555   2.250       .  S
O61          C69   1.259       .  A
O62        In555   2.239       .  S
O62          C69   1.258       .  A
C63          O70   1.259       .  A
C63          O64   1.260       .  A
C63         C203   1.463       .  S
C65          O71   1.261       .  A
C65         O563   1.259   1_554  A
C65         C589   1.464   1_545  S
O66         C556   1.259       .  A
O67        In555   2.239       .  S
O67         C561   1.259       .  A
O68        In555   2.247       .  S
C69         C219   1.463       .  S
In72         O74   2.259   1_556  S
In72         O75   2.218   1_556  S
In72         O80   2.246   1_556  S
In72         O81   2.248   1_556  S
In72        O579   2.245       .  S
In72        O573   2.243       .  S
In72        O575   2.249       .  S
In72        O580   2.259       .  S
C73          O81   1.257       .  A
C73         O575   1.257   1_554  A
C73         C556   1.460       .  S
O74          C82   1.265       .  A
O75          C82   1.260       .  A
C76          O83   1.258       .  A
C76          O77   1.257       .  A
C76         C267   1.460       .  S
O77        In568   2.243       .  S
C78          O84   1.258       .  A
C78         O576   1.255       .  A
C78         C602   1.462   1_545  S
O79        In568   2.249       .  S
O79         C569   1.257       .  A
O80         C574   1.255   1_554  A
C82         C248   1.463       .  S
O83        In568   2.245       .  S
O84        In568   2.259       .  S
C85         C152   1.525       .  S
C85         C171   1.520       .  S
C85         C235   1.528       .  S
C85         C331   1.529       .  S
C86         C123   1.529       .  S
C86         C139   1.521       .  S
C86         C187   1.526       .  S
C86         C280   1.529       .  S
In87         O89   2.261       .  S
In87         O90   2.261       .  S
In87         O95   2.263       .  S
In87         O96   2.249       .  S
In87        O594   2.236   1_554  S
In87        O588   2.239   1_554  S
In87        O590   2.251   1_554  S
In87        O595   2.242   1_554  S
C88          O96   1.258       .  A
C88         O590   1.258   1_554  A
C88         C597   1.462       .  S
O89          C97   1.255       .  A
O90          C97   1.257       .  A
C91          O98   1.265       .  A
C91          O92   1.264       .  A
C91         C120   1.466       .  S
O92        In583   2.239       .  S
C93          O99   1.256       .  A
C93         O591   1.258       .  A
C93         C561   1.464   1_565  S
O94        In583   2.251       .  S
O94         C584   1.258       .  A
O95         C589   1.258       .  A
C97         C136   1.467       .  S
O98        In583   2.236       .  S
O99        In583   2.242       .  S
In100       O111   2.252   1_556  S
In100       O105   2.248   1_556  S
In100       O107   2.243   1_556  S
In100       O112   2.243   1_556  S
In100       O598   2.246       .  S
In100       O599   2.237       .  S
In100       O604   2.247       .  S
In100       O605   2.252       .  S
C101        O109   1.260       .  A
C101        O603   1.257       .  A
C101        C584   1.462       .  S
O102       In596   2.246       .  S
O102        C110   1.259       .  A
O103       In596   2.237       .  S
O103        C110   1.257       .  A
C104        O111   1.262       .  A
C104        O105   1.259       .  A
C104        C168   1.469       .  S
C106        O112   1.261   1_556  A
C106        O604   1.260       .  A
C106        C574   1.462   1_565  S
O107        C597   1.257       .  A
O108       In596   2.247       .  S
O108        C602   1.260       .  A
O109       In596   2.252       .  S
C110        C155   1.459       .  S
C113        C118   1.381       .  A
C113        C114   1.399       .  A
C113        O119   1.317       .  A
C114        C115   1.400       .  A
C114        H125   1.082       .  S
C115        C124   1.355       .  A
C115        C116   1.377       .  A
C116        C117   1.406       .  A
C116        O122   1.321       .  A
C117        C118   1.406       .  A
C117        H126   1.082       .  S
C118        C121   1.364       .  A
O119        C120   1.328       .  A
C120        C121   1.392       .  A
C121        H127   1.082       .  S
O122        C123   1.336       .  A
C123        C124   1.397       .  A
C124        H128   1.081       .  S
C129        C134   1.381       .  A
C129        C130   1.403       .  A
C129        O135   1.318       .  A
C130        C131   1.402       .  A
C130        H141   1.082       .  S
C131        C140   1.359       .  A
C131        C132   1.380       .  A
C132        C133   1.402       .  A
C132        O138   1.317       .  A
C133        C134   1.402       .  A
C133        H142   1.083       .  S
C134        C137   1.361       .  A
O135        C136   1.331       .  A
C136        C137   1.390       .  A
C137        H143   1.083       .  S
O138        C139   1.333       .  A
C139        C140   1.395       .  A
C140        H144   1.082       .  S
C145        C150   1.378       .  A
C145        C146   1.402       .  A
C145        O151   1.317       .  A
C146        C147   1.402       .  A
C146        H157   1.082       .  S
C147        C156   1.360       .  A
C147        C148   1.381       .  A
C148        C149   1.399       .  A
C148        O154   1.315       .  A
C149        C150   1.398       .  A
C149        H158   1.082       .  S
C150        C153   1.353       .  A
O151        C152   1.333       .  A
C152        C153   1.395       .  A
C153        H159   1.081       .  S
O154        C155   1.328       .  A
C155        C156   1.389       .  A
C156        H160   1.082       .  S
C161        C166   1.380       .  A
C161        C162   1.406       .  A
C161        O167   1.320       .  A
C162        C163   1.405       .  A
C162        H173   1.083       .  S
C163        C172   1.363       .  A
C163        C164   1.380       .  A
C164        C165   1.400       .  A
C164        O170   1.315       .  A
C165        C166   1.400       .  A
C165        H174   1.082       .  S
C166        C169   1.360       .  A
O167        C168   1.332       .  A
C168        C169   1.389       .  A
C169        H175   1.083       .  S
O170        C171   1.331       .  A
C171        C172   1.396       .  A
C172        H176   1.083       .  S
C177        C182   1.378       .  A
C177        C178   1.407       .  A
C177        O183   1.322       .  A
C178        C179   1.407       .  A
C178        H189   1.082       .  S
C179        C188   1.366       .  A
C179        C180   1.379       .  A
C180        C181   1.403       .  A
C180        O186   1.318       .  A
C181        C182   1.402       .  A
C181        H190   1.083       .  S
C182        C185   1.358       .  A
O183        C184   1.335       .  A
C184        C185   1.400       .  A
C185        H191   1.082       .  S
O186        C187   1.334       .  A
C187        C188   1.396       .  A
C188        H192   1.082       .  S
C193        C198   1.379       .  A
C193        C194   1.400       .  A
C193        O199   1.316       .  A
C194        C195   1.400       .  A
C194        H205   1.082       .  S
C195        C204   1.359       .  A
C195        C196   1.381       .  A
C196        C197   1.402       .  A
C196        O202   1.318       .  A
C197        C198   1.402       .  A
C197        H206   1.083       .  S
C198        C201   1.358       .  A
O199        C200   1.332       .  A
C200        C201   1.399       .  A
C201        H207   1.082       .  S
O202        C203   1.330       .  A
C203        C204   1.389       .  A
C204        H208   1.083       .  S
C209        C214   1.378       .  A
C209        C210   1.406       .  A
C209        O215   1.322       .  A
C210        C211   1.406       .  A
C210        H221   1.083       .  S
C211        C220   1.364       .  A
C211        C212   1.381       .  A
C212        C213   1.398       .  A
C212        O218   1.315       .  A
C213        C214   1.398       .  A
C213        H222   1.083       .  S
C214        C217   1.353       .  A
O215        C216   1.336       .  A
C216        C217   1.395       .  A
C217        H223   1.080       .  S
O218        C219   1.327       .  A
C219        C220   1.392       .  A
C220        H224   1.082       .  S
C225        C230   1.377       .  A
C225        C226   1.405       .  A
C225        O231   1.319       .  A
C226        C227   1.404       .  A
C226        H237   1.082       .  S
C227        C236   1.363       .  A
C227        C228   1.378       .  A
C228        C229   1.401       .  A
C228        O234   1.316       .  A
C229        C230   1.400       .  A
C229        H238   1.083       .  S
C230        C233   1.356       .  A
O231        C232   1.334       .  A
C232        C233   1.399       .  A
C233        H239   1.081       .  S
O234        C235   1.332       .  A
C235        C236   1.397       .  A
C236        H240   1.082       .  S
C241        C246   1.380       .  A
C241        C242   1.400       .  A
C241        O247   1.314       .  A
C242        C243   1.399       .  A
C242        H253   1.082       .  S
C243        C252   1.357       .  A
C243        C244   1.379       .  A
C244        C245   1.405       .  A
C244        O250   1.319       .  A
C245        C246   1.404       .  A
C245        H254   1.081       .  S
C246        C249   1.365       .  A
O247        C248   1.328       .  A
C248        C249   1.391       .  A
C249        H255   1.082       .  S
O250        C251   1.333       .  A
C251        C252   1.394       .  A
C252        H256   1.082       .  S
C257        C262   1.379       .  A
C257        C258   1.403       .  A
C257        O263   1.317       .  A
C258        C259   1.402       .  A
C258        H269   1.083       .  S
C259        C268   1.361       .  A
C259        C260   1.382       .  A
C260        C261   1.399       .  A
C260        O266   1.315       .  A
C261        C262   1.398       .  A
C261        H270   1.082       .  S
C262        C265   1.356       .  A
O263        C264   1.334       .  A
C264        C265   1.394       .  A
C265        H271   1.082       .  S
O266        C267   1.328       .  A
C267        C268   1.390       .  A
C268        H272   1.083       .  S
C273        C278   1.379       .  A
C273        C274   1.405       .  A
C273        O279   1.322       .  A
C274        C275   1.405       .  A
C274        H285   1.082       .  S
C275        C284   1.360       .  A
C275        C276   1.379       .  A
C276        C277   1.404       .  A
C276        O282   1.321       .  A
C277        C278   1.404       .  A
C277        H286   1.082       .  S
C278        C281   1.359       .  A
O279        C280   1.334       .  A
C280        C281   1.397       .  A
C281        H287   1.082       .  S
O282        C283   1.334       .  A
C283        C284   1.399       .  A
C284        H288   1.082       .  S
C289        C294   1.379       .  A
C289        C290   1.397       .  A
C289        O295   1.313       .  A
C290        C291   1.396       .  A
C290        H301   1.082       .  S
C291        C300   1.355       .  A
C291        C292   1.380       .  A
C292        C293   1.410       .  A
C292        O298   1.324       .  A
C293        C294   1.409       .  A
C293        H302   1.082       .  S
C294        C297   1.367       .  A
O295        C296   1.329       .  A
C296        C297   1.401       .  A
C297        H303   1.081       .  S
O298        C299   1.334       .  A
C299        C300   1.387       .  A
C300        H304   1.083       .  S
C305        C310   1.380       .  A
C305        C306   1.406       .  A
C305        O311   1.320       .  A
C306        C307   1.405       .  A
C306        H317   1.082       .  S
C307        C316   1.364       .  A
C307        C308   1.378       .  A
C308        C309   1.402       .  A
C308        O314   1.316       .  A
C309        C310   1.401       .  A
C309        H318   1.082       .  S
C310        C313   1.361       .  A
O311        C312   1.332       .  A
C312        C313   1.390       .  A
C313        H319   1.082       .  S
O314        C315   1.334       .  A
C315        C316   1.398       .  A
C316        H320   1.081       .  S
C321        C326   1.378       .  A
C321        C322   1.404       .  A
C321        O327   1.320       .  A
C322        C323   1.404       .  A
C322        H333   1.083       .  S
C323        C332   1.358       .  A
C323        C324   1.378       .  A
C324        C325   1.402       .  A
C324        O330   1.319       .  A
C325        C326   1.403       .  A
C325        H334   1.083       .  S
C326        C329   1.357       .  A
O327        C328   1.335       .  A
C328        C329   1.398       .  A
C329        H335   1.080       .  S
O330        C331   1.333       .  A
C331        C332   1.399       .  A
C332        H336   1.080       .  S
C337        C342   1.381       .  A
C337        C338   1.401       .  A
C337        O343   1.317       .  A
C338        C339   1.400       .  A
C338        H349   1.082       .  S
C339        C348   1.357       .  A
C339        C340   1.378       .  A
C340        C341   1.405       .  A
C340        O346   1.319       .  A
C341        C342   1.404       .  A
C341        H350   1.082       .  S
C342        C345   1.363       .  A
O343        C344   1.329       .  A
C344        C345   1.391       .  A
C345        H351   1.082       .  S
O346        C347   1.335       .  A
C347        C348   1.396       .  A
C348        H352   1.081       .  S
C353        C358   1.381       .  A
C353        C354   1.399       .  A
C353        O359   1.316       .  A
C354        C355   1.398       .  A
C354        H365   1.082       .  S
C355        C364   1.355       .  A
C355        C356   1.378       .  A
C356        C357   1.406       .  A
C356        O362   1.320       .  A
C357        C358   1.405       .  A
C357        H366   1.082       .  S
C358        C361   1.364       .  A
O359        C360   1.328       .  A
C360        C361   1.392       .  A
C361        H367   1.083       .  S
O362        C363   1.335       .  A
C363        C364   1.395       .  A
C364        H368   1.081       .  S
C369        C374   1.378       .  A
C369        C370   1.404       .  A
C369        O375   1.321       .  A
C370        C371   1.405       .  A
C370        H381   1.082       .  S
C371        C380   1.359       .  A
C371        C372   1.380       .  A
C372        C373   1.399       .  A
C372        O378   1.318       .  A
C373        C374   1.400       .  A
C373        H382   1.082       .  S
C374        C377   1.353       .  A
O375        C376   1.335       .  A
C376        C377   1.397       .  A
C377        H383   1.079       .  S
O378        C379   1.331       .  A
C379        C380   1.398       .  A
C380        H384   1.083       .  S
C385        C390   1.378       .  A
C385        C386   1.406   1_545  A
C385        O391   1.320       .  A
C386        C387   1.406       .  A
C386        H397   1.083       .  S
C387        C396   1.363       .  A
C387        C388   1.380       .  A
C388        C389   1.401       .  A
C388        O394   1.318       .  A
C389        C390   1.401   1_565  A
C389        H398   1.083       .  S
C390        C393   1.358       .  A
O391        C392   1.335       .  A
C392        C393   1.397       .  A
C393        H399   1.082       .  S
O394        C395   1.332       .  A
C395        C396   1.397       .  A
C396        H400   1.082       .  S
C401        C406   1.377       .  A
C401        C402   1.404       .  A
C401        O407   1.318       .  A
C402        C403   1.403       .  A
C402        H413   1.082       .  S
C403        C412   1.363       .  A
C403        C404   1.381       .  A
C404        C405   1.402       .  A
C404        O410   1.317       .  A
C405        C406   1.401       .  A
C405        H414   1.082       .  S
C406        C409   1.358       .  A
O407        C408   1.334       .  A
C408        C409   1.399       .  A
C409        H415   1.081       .  S
O410        C411   1.330       .  A
C411        C412   1.391       .  A
C412        H416   1.082       .  S
C417        C422   1.381       .  A
C417        C418   1.406       .  A
C417        O423   1.322       .  A
C418        C419   1.405       .  A
C418        H429   1.082       .  S
C419        C428   1.362       .  A
C419        C420   1.379       .  A
C420        C421   1.399       .  A
C420        O426   1.315       .  A
C421        C422   1.399       .  A
C421        H430   1.083       .  S
C422        C425   1.356       .  A
O423        C424   1.332       .  A
C424        C425   1.388       .  A
C425        H431   1.083       .  S
O426        C427   1.332       .  A
C427        C428   1.397       .  A
C428        H432   1.082       .  S
C433        C438   1.379       .  A
C433        C434   1.403       .  A
C433        O439   1.317       .  A
C434        C435   1.401       .  A
C434        H445   1.082       .  S
C435        C444   1.360       .  A
C435        C436   1.379       .  A
C436        C437   1.404       .  A
C436        O442   1.317       .  A
C437        C438   1.403       .  A
C437        H446   1.082       .  S
C438        C441   1.362       .  A
O439        C440   1.333       .  A
C440        C441   1.396       .  A
C441        H447   1.083       .  S
O442        C443   1.334       .  A
C443        C444   1.395       .  A
C444        H448   1.082       .  S
C449        C454   1.379       .  A
C449        C450   1.403       .  A
C449        O455   1.319       .  A
C450        C451   1.403   1_565  A
C450        H461   1.083       .  S
C451        C460   1.358       .  A
C451        C452   1.378       .  A
C452        C453   1.405   1_545  A
C452        O458   1.321       .  A
C453        C454   1.404       .  A
C453        H462   1.082       .  S
C454        C457   1.362       .  A
O455        C456   1.334       .  A
C456        C457   1.397       .  A
C457        H463   1.082       .  S
O458        C459   1.334       .  A
C459        C460   1.399       .  A
C460        H464   1.081       .  S
C465        C470   1.380       .  A
C465        C466   1.407       .  A
C465        O471   1.322       .  A
C466        C467   1.406       .  A
C466        H477   1.081       .  S
C467        C476   1.366       .  A
C467        C468   1.378       .  A
C468        C469   1.401       .  A
C468        O474   1.315       .  A
C469        C470   1.400       .  A
C469        H478   1.082       .  S
C470        C473   1.359       .  A
O471        C472   1.332       .  A
C472        C473   1.389       .  A
C473        H479   1.082       .  S
O474        C475   1.333       .  A
C475        C476   1.398       .  A
C476        H480   1.082       .  S
C481        C486   1.380       .  A
C481        C482   1.399       .  A
C481        O487   1.316       .  A
C482        C483   1.399       .  A
C482        H493   1.082       .  S
C483        C492   1.356       .  A
C483        C484   1.381       .  A
C484        C485   1.405       .  A
C484        O490   1.321       .  A
C485        C486   1.405       .  A
C485        H494   1.082       .  S
C486        C489   1.361       .  A
O487        C488   1.331       .  A
C488        C489   1.397       .  A
C489        H495   1.082       .  S
O490        C491   1.332       .  A
C491        C492   1.388       .  A
C492        H496   1.083       .  S
C497        C936   1.524       .  S
C497        C955   1.529       .  S
C497        C971   1.523       .  S
C497        C984   1.522       .  S
C498        C875   1.527       .  S
C498        C888   1.525       .  S
C498        C904   1.531       .  S
C498        C923   1.521       .  S
In499       O510   2.241       .  S
In499       O504   2.261       .  S
In499       O506   2.250       .  S
In499       O511   2.263       .  S
C500        O508   1.261   1_455  A
O501        C509   1.259       .  A
O502        C509   1.255       .  A
C503        O510   1.258       .  A
C503        O504   1.261       .  A
C503        C907   1.467       .  S
C505        O511   1.260       .  A
C509        C920   1.466       .  S
In512       O514   2.261       .  S
In512       O515   2.241       .  S
In512       O520   2.242       .  S
In512       O521   2.251       .  S
C513        O521   1.261       .  A
O514        C522   1.261       .  A
O515        C522   1.259       .  A
C516        O523   1.259       .  A
C516        O517   1.260       .  A
C516        C987   1.466       .  S
C518        O524   1.261       .  A
C522        C968   1.469       .  S
C525        C824   1.532       .  S
C525        C843   1.525       .  S
C525        C859   1.526       .  S
C525        C952   1.526       .  S
C526        C779   1.534       .  S
C526        C792   1.526       .  S
C526        C811   1.529       .  S
C526        C891   1.523       .  S
In527       O529   2.252       .  S
In527       O530   2.248       .  S
In527       O535   2.262       .  S
In527       O536   2.238       .  S
C528        O536   1.260       .  A
O529        C537   1.260       .  A
O530        C537   1.260       .  A
C531        O538   1.259       .  A
C531        O532   1.260       .  A
C531        C795   1.469       .  S
C533        O539   1.258   1_554  A
C537        C808   1.469       .  S
In540       O551   2.242       .  S
In540       O545   2.255       .  S
In540       O547   2.244       .  S
In540       O552   2.245       .  S
C541        O549   1.259   1_554  A
O542        C550   1.261       .  A
O543        C550   1.261       .  A
C544        O551   1.258       .  A
C544        O545   1.260       .  A
C544        C840   1.465       .  S
C546        O552   1.258       .  A
C550        C856   1.464       .  S
C553        C728   1.527       .  S
C553        C747   1.518       .  S
C553        C760   1.524       .  S
C553        C939   1.523       .  S
C554        C680   1.532       .  S
C554        C696   1.527       .  S
C554        C712   1.524       .  S
C554        C872   1.529       .  S
In555       O566   2.244       .  S
In555       O560   2.240       .  S
In555       O562   2.245       .  S
In555       O567   2.258       .  S
C556        O564   1.260   1_554  A
O557        C565   1.259       .  A
O558        C565   1.258       .  A
C559        O566   1.259       .  A
C559        O560   1.260       .  A
C559        C699   1.463       .  S
C561        O567   1.261       .  A
C565        C715   1.463       .  S
In568       O570   2.259       .  S
In568       O571   2.218       .  S
In568       O576   2.246       .  S
In568       O577   2.248       .  S
C569        O577   1.257       .  A
O570        C578   1.265       .  A
O571        C578   1.260       .  A
C572        O579   1.258       .  A
C572        O573   1.257       .  A
C572        C763   1.460       .  S
C574        O580   1.258       .  A
C578        C744   1.463       .  S
C581        C648   1.525       .  S
C581        C667   1.520       .  S
C581        C731   1.528       .  S
C581        C827   1.529       .  S
C582        C619   1.529       .  S
C582        C635   1.521       .  S
C582        C683   1.526       .  S
C582        C776   1.529       .  S
In583       O585   2.261       .  S
In583       O586   2.261       .  S
In583       O591   2.263       .  S
In583       O592   2.249       .  S
C584        O592   1.258       .  A
O585        C593   1.255       .  A
O586        C593   1.257       .  A
C587        O594   1.265       .  A
C587        O588   1.264       .  A
C587        C616   1.466       .  S
C589        O595   1.256   1_554  A
C593        C632   1.467       .  S
In596       O607   2.252       .  S
In596       O601   2.248       .  S
In596       O603   2.243       .  S
In596       O608   2.243       .  S
C597        O605   1.260   1_554  A
O598        C606   1.259       .  A
O599        C606   1.257       .  A
C600        O607   1.262       .  A
C600        O601   1.259       .  A
C600        C664   1.469       .  S
C602        O608   1.261       .  A
C606        C651   1.459       .  S
C609        C614   1.381       .  A
C609        C610   1.399       .  A
C609        O615   1.317       .  A
C610        C611   1.400       .  A
C610        H621   1.082       .  S
C611        C620   1.355       .  A
C611        C612   1.377       .  A
C612        C613   1.406       .  A
C612        O618   1.321       .  A
C613        C614   1.406       .  A
C613        H622   1.082       .  S
C614        C617   1.364       .  A
O615        C616   1.328       .  A
C616        C617   1.392       .  A
C617        H623   1.082       .  S
O618        C619   1.336       .  A
C619        C620   1.397       .  A
C620        H624   1.081       .  S
C625        C630   1.381       .  A
C625        C626   1.403       .  A
C625        O631   1.318       .  A
C626        C627   1.402       .  A
C626        H637   1.082       .  S
C627        C636   1.359       .  A
C627        C628   1.380       .  A
C628        C629   1.402       .  A
C628        O634   1.317       .  A
C629        C630   1.402       .  A
C629        H638   1.083       .  S
C630        C633   1.361       .  A
O631        C632   1.331       .  A
C632        C633   1.390       .  A
C633        H639   1.083       .  S
O634        C635   1.333       .  A
C635        C636   1.395       .  A
C636        H640   1.082       .  S
C641        C646   1.378       .  A
C641        C642   1.402       .  A
C641        O647   1.317       .  A
C642        C643   1.402       .  A
C642        H653   1.082       .  S
C643        C652   1.360       .  A
C643        C644   1.381       .  A
C644        C645   1.399       .  A
C644        O650   1.315       .  A
C645        C646   1.398       .  A
C645        H654   1.082       .  S
C646        C649   1.353       .  A
O647        C648   1.333       .  A
C648        C649   1.395       .  A
C649        H655   1.081       .  S
O650        C651   1.328       .  A
C651        C652   1.389       .  A
C652        H656   1.082       .  S
C657        C662   1.380       .  A
C657        C658   1.406       .  A
C657        O663   1.320       .  A
C658        C659   1.405       .  A
C658        H669   1.083       .  S
C659        C668   1.363       .  A
C659        C660   1.380       .  A
C660        C661   1.400       .  A
C660        O666   1.315       .  A
C661        C662   1.400       .  A
C661        H670   1.082       .  S
C662        C665   1.360       .  A
O663        C664   1.332       .  A
C664        C665   1.389       .  A
C665        H671   1.082       .  S
O666        C667   1.331       .  A
C667        C668   1.396       .  A
C668        H672   1.083       .  S
C673        C678   1.378       .  A
C673        C674   1.407       .  A
C673        O679   1.322       .  A
C674        C675   1.407       .  A
C674        H685   1.082       .  S
C675        C684   1.366       .  A
C675        C676   1.379       .  A
C676        C677   1.403       .  A
C676        O682   1.318       .  A
C677        C678   1.402       .  A
C677        H686   1.083       .  S
C678        C681   1.358       .  A
O679        C680   1.335       .  A
C680        C681   1.400       .  A
C681        H687   1.082       .  S
O682        C683   1.334       .  A
C683        C684   1.396       .  A
C684        H688   1.082       .  S
C689        C694   1.379       .  A
C689        C690   1.400       .  A
C689        O695   1.316       .  A
C690        C691   1.400       .  A
C690        H701   1.082       .  S
C691        C700   1.359       .  A
C691        C692   1.381       .  A
C692        C693   1.402       .  A
C692        O698   1.318       .  A
C693        C694   1.402       .  A
C693        H702   1.083       .  S
C694        C697   1.358       .  A
O695        C696   1.332       .  A
C696        C697   1.399       .  A
C697        H703   1.082       .  S
O698        C699   1.330       .  A
C699        C700   1.389       .  A
C700        H704   1.083       .  S
C705        C710   1.378       .  A
C705        C706   1.406       .  A
C705        O711   1.322       .  A
C706        C707   1.406       .  A
C706        H717   1.083       .  S
C707        C716   1.364       .  A
C707        C708   1.381       .  A
C708        C709   1.398       .  A
C708        O714   1.315       .  A
C709        C710   1.398       .  A
C709        H718   1.083       .  S
C710        C713   1.353       .  A
O711        C712   1.336       .  A
C712        C713   1.395       .  A
C713        H719   1.080       .  S
O714        C715   1.327       .  A
C715        C716   1.392       .  A
C716        H720   1.082       .  S
C721        C726   1.377       .  A
C721        C722   1.405       .  A
C721        O727   1.319       .  A
C722        C723   1.404       .  A
C722        H733   1.082       .  S
C723        C732   1.363       .  A
C723        C724   1.378       .  A
C724        C725   1.401       .  A
C724        O730   1.316       .  A
C725        C726   1.400       .  A
C725        H734   1.083       .  S
C726        C729   1.356       .  A
O727        C728   1.334       .  A
C728        C729   1.399       .  A
C729        H735   1.081       .  S
O730        C731   1.332       .  A
C731        C732   1.397       .  A
C732        H736   1.082       .  S
C737        C742   1.380       .  A
C737        C738   1.400       .  A
C737        O743   1.314       .  A
C738        C739   1.399       .  A
C738        H749   1.082       .  S
C739        C748   1.357       .  A
C739        C740   1.379       .  A
C740        C741   1.405       .  A
C740        O746   1.319       .  A
C741        C742   1.404       .  A
C741        H750   1.081       .  S
C742        C745   1.365       .  A
O743        C744   1.328       .  A
C744        C745   1.391       .  A
C745        H751   1.082       .  S
O746        C747   1.333       .  A
C747        C748   1.394       .  A
C748        H752   1.082       .  S
C753        C758   1.379       .  A
C753        C754   1.403       .  A
C753        O759   1.316       .  A
C754        C755   1.402       .  A
C754        H765   1.083       .  S
C755        C764   1.361       .  A
C755        C756   1.382       .  A
C756        C757   1.399       .  A
C756        O762   1.315       .  A
C757        C758   1.398       .  A
C757        H766   1.082       .  S
C758        C761   1.356       .  A
O759        C760   1.334       .  A
C760        C761   1.394       .  A
C761        H767   1.082       .  S
O762        C763   1.328       .  A
C763        C764   1.390       .  A
C764        H768   1.083       .  S
C769        C774   1.379       .  A
C769        C770   1.405       .  A
C769        O775   1.322       .  A
C770        C771   1.405       .  A
C770        H781   1.082       .  S
C771        C780   1.360       .  A
C771        C772   1.379       .  A
C772        C773   1.404       .  A
C772        O778   1.321       .  A
C773        C774   1.404       .  A
C773        H782   1.082       .  S
C774        C777   1.359       .  A
O775        C776   1.334       .  A
C776        C777   1.397       .  A
C777        H783   1.082       .  S
O778        C779   1.334       .  A
C779        C780   1.399       .  A
C780        H784   1.082       .  S
C785        C790   1.379       .  A
C785        C786   1.397       .  A
C785        O791   1.313       .  A
C786        C787   1.396       .  A
C786        H797   1.082       .  S
C787        C796   1.355       .  A
C787        C788   1.380       .  A
C788        C789   1.410       .  A
C788        O794   1.324       .  A
C789        C790   1.409       .  A
C789        H798   1.082       .  S
C790        C793   1.367       .  A
O791        C792   1.329       .  A
C792        C793   1.401       .  A
C793        H799   1.081       .  S
O794        C795   1.334       .  A
C795        C796   1.387       .  A
C796        H800   1.083       .  S
C801        C806   1.380       .  A
C801        C802   1.406       .  A
C801        O807   1.320       .  A
C802        C803   1.405       .  A
C802        H813   1.082       .  S
C803        C812   1.364       .  A
C803        C804   1.378       .  A
C804        C805   1.402       .  A
C804        O810   1.316       .  A
C805        C806   1.401       .  A
C805        H814   1.082       .  S
C806        C809   1.361       .  A
O807        C808   1.332       .  A
C808        C809   1.390       .  A
C809        H815   1.082       .  S
O810        C811   1.334       .  A
C811        C812   1.398       .  A
C812        H816   1.081       .  S
C817        C822   1.378       .  A
C817        C818   1.404       .  A
C817        O823   1.320       .  A
C818        C819   1.404       .  A
C818        H829   1.083       .  S
C819        C828   1.358       .  A
C819        C820   1.378       .  A
C820        C821   1.402       .  A
C820        O826   1.319       .  A
C821        C822   1.403       .  A
C821        H830   1.083       .  S
C822        C825   1.357       .  A
O823        C824   1.335       .  A
C824        C825   1.398       .  A
C825        H831   1.080       .  S
O826        C827   1.333       .  A
C827        C828   1.399       .  A
C828        H832   1.080       .  S
C833        C838   1.381       .  A
C833        C834   1.401       .  A
C833        O839   1.317       .  A
C834        C835   1.400       .  A
C834        H845   1.082       .  S
C835        C844   1.357       .  A
C835        C836   1.378       .  A
C836        C837   1.405       .  A
C836        O842   1.319       .  A
C837        C838   1.404       .  A
C837        H846   1.082       .  S
C838        C841   1.363       .  A
O839        C840   1.329       .  A
C840        C841   1.391       .  A
C841        H847   1.082       .  S
O842        C843   1.335       .  A
C843        C844   1.396       .  A
C844        H848   1.081       .  S
C849        C854   1.381       .  A
C849        C850   1.399       .  A
C849        O855   1.316       .  A
C850        C851   1.398       .  A
C850        H861   1.082       .  S
C851        C860   1.355       .  A
C851        C852   1.378       .  A
C852        C853   1.406       .  A
C852        O858   1.320       .  A
C853        C854   1.405       .  A
C853        H862   1.082       .  S
C854        C857   1.364       .  A
O855        C856   1.328       .  A
C856        C857   1.392       .  A
C857        H863   1.083       .  S
O858        C859   1.335       .  A
C859        C860   1.395       .  A
C860        H864   1.081       .  S
C865        C870   1.378       .  A
C865        C866   1.404       .  A
C865        O871   1.321       .  A
C866        C867   1.405       .  A
C866        H877   1.082       .  S
C867        C876   1.359       .  A
C867        C868   1.380       .  A
C868        C869   1.399       .  A
C868        O874   1.318       .  A
C869        C870   1.400       .  A
C869        H878   1.082       .  S
C870        C873   1.353       .  A
O871        C872   1.335       .  A
C872        C873   1.397       .  A
C873        H879   1.079       .  S
O874        C875   1.331       .  A
C875        C876   1.398       .  A
C876        H880   1.083       .  S
C881        C886   1.378       .  A
C881        C882   1.406   1_545  A
C881        O887   1.320       .  A
C882        C883   1.406       .  A
C882        H893   1.083       .  S
C883        C892   1.363       .  A
C883        C884   1.380       .  A
C884        C885   1.401       .  A
C884        O890   1.318       .  A
C885        C886   1.401   1_565  A
C885        H894   1.083       .  S
C886        C889   1.358       .  A
O887        C888   1.335       .  A
C888        C889   1.397       .  A
C889        H895   1.082       .  S
O890        C891   1.332       .  A
C891        C892   1.397       .  A
C892        H896   1.082       .  S
C897        C902   1.377       .  A
C897        C898   1.404       .  A
C897        O903   1.318       .  A
C898        C899   1.403       .  A
C898        H909   1.082       .  S
C899        C908   1.363       .  A
C899        C900   1.381       .  A
C900        C901   1.402       .  A
C900        O906   1.317       .  A
C901        C902   1.401       .  A
C901        H910   1.082       .  S
C902        C905   1.358       .  A
O903        C904   1.334       .  A
C904        C905   1.399       .  A
C905        H911   1.081       .  S
O906        C907   1.330       .  A
C907        C908   1.391       .  A
C908        H912   1.082       .  S
C913        C918   1.381       .  A
C913        C914   1.406       .  A
C913        O919   1.322       .  A
C914        C915   1.405       .  A
C914        H925   1.082       .  S
C915        C924   1.362       .  A
C915        C916   1.379       .  A
C916        C917   1.399       .  A
C916        O922   1.315       .  A
C917        C918   1.399       .  A
C917        H926   1.083       .  S
C918        C921   1.356       .  A
O919        C920   1.332       .  A
C920        C921   1.388       .  A
C921        H927   1.083       .  S
O922        C923   1.332       .  A
C923        C924   1.397       .  A
C924        H928   1.082       .  S
C929        C934   1.379       .  A
C929        C930   1.403       .  A
C929        O935   1.317       .  A
C930        C931   1.401       .  A
C930        H941   1.082       .  S
C931        C940   1.360       .  A
C931        C932   1.379       .  A
C932        C933   1.404       .  A
C932        O938   1.317       .  A
C933        C934   1.403       .  A
C933        H942   1.082       .  S
C934        C937   1.362       .  A
O935        C936   1.333       .  A
C936        C937   1.396       .  A
C937        H943   1.083       .  S
O938        C939   1.334       .  A
C939        C940   1.395       .  A
C940        H944   1.082       .  S
C945        C950   1.379       .  A
C945        C946   1.403       .  A
C945        O951   1.319       .  A
C946        C947   1.403   1_565  A
C946        H957   1.083       .  S
C947        C956   1.358       .  A
C947        C948   1.378       .  A
C948        C949   1.405   1_545  A
C948        O954   1.321       .  A
C949        C950   1.404       .  A
C949        H958   1.082       .  S
C950        C953   1.362       .  A
O951        C952   1.334       .  A
C952        C953   1.397       .  A
C953        H959   1.082       .  S
O954        C955   1.334       .  A
C955        C956   1.399       .  A
C956        H960   1.081       .  S
C961        C966   1.380       .  A
C961        C962   1.407       .  A
C961        O967   1.322       .  A
C962        C963   1.406       .  A
C962        H973   1.081       .  S
C963        C972   1.366       .  A
C963        C964   1.378       .  A
C964        C965   1.401       .  A
C964        O970   1.315       .  A
C965        C966   1.400       .  A
C965        H974   1.082       .  S
C966        C969   1.359       .  A
O967        C968   1.332       .  A
C968        C969   1.389       .  A
C969        H975   1.082       .  S
O970        C971   1.333       .  A
C971        C972   1.398       .  A
C972        H976   1.082       .  S
C977        C982   1.380       .  A
C977        C978   1.399       .  A
C977        O983   1.316       .  A
C978        C979   1.399       .  A
C978        H989   1.082       .  S
C979        C988   1.356       .  A
C979        C980   1.381       .  A
C980        C981   1.405       .  A
C980        O986   1.321       .  A
C981        C982   1.405       .  A
C981        H990   1.082       .  S
C982        C985   1.361       .  A
O983        C984   1.331       .  A
C984        C985   1.397       .  A
C985        H991   1.082       .  S
O986        C987   1.332       .  A
C987        C988   1.388       .  A
C988        H992   1.083       .  S
