geometry optimzed in LAMMPS
_audit_creation_date              2020-12-01 
_audit_creation_method            'lammps2cif' 
_symmetry_space_group_name_H-M    'P1' 
_symmetry_Int_Tables_number       1 
_symmetry_cell_setting            triclinic 
loop_ 
_symmetry_equiv_pos_as_xyz 
  x,y,z 
_cell_length_a                    39.90759011 
_cell_length_b                    38.124360156623005 
_cell_length_c                    49.552326073116554 
_cell_angle_alpha                 89.7461352102932 
_cell_angle_beta                  90.2022091251551 
_cell_angle_gamma                 89.79482303497699 
loop_ 
_atom_site_label 
_atom_site_type_symbol 
_atom_site_fract_x 
_atom_site_fract_y 
_atom_site_fract_z 
_atom_site_charge 
In1        In  0.25659130  0.90479846  0.32407490     1.36900
C2          C  0.25626713  0.83532034  0.31904952     0.76900
O3          O  0.31241901  0.90918513  0.32020417    -0.61500
O4          O  0.29123500  0.91221439  0.35916083    -0.52400
C5          C  0.25433102  0.95442775  0.28609185     0.69600
O6          O  0.25429550  0.92210330  0.28071125    -0.47300
C7          C  0.19776002  0.91583158  0.34755552     0.74300
O8          O  0.25358383  0.85558025  0.29892820    -0.59200
O9          O  0.22505095  0.92489228  0.35834160    -0.49200
O10         O  0.25968787  0.85077719  0.34126344    -0.55600
C11         C  0.31762784  0.91187786  0.34521060     0.84500
O12         O  0.25577116  0.96099706  0.31101064    -0.57500
O13         O  0.20083013  0.90137161  0.32489888    -0.60800
In14       In  0.24923118  0.61442964  0.32233002     1.36900
C15         C  0.25288174  0.68386641  0.31860719     0.76900
O16         O  0.19345513  0.61956126  0.32174196    -0.61500
O17         O  0.21601293  0.59450728  0.35549273    -0.52400
C18         C  0.24753885  0.56620301  0.28393457     0.69600
O19         O  0.24896355  0.59862331  0.27874088    -0.47300
C20         C  0.30924120  0.60315696  0.34413608     0.74300
O21         O  0.25012515  0.66475602  0.29797399    -0.59200
O22         O  0.28264747  0.60324500  0.35778983    -0.49200
O23         O  0.25257849  0.66739690  0.34065939    -0.55600
C24         C  0.18926639  0.60466961  0.34422618     0.84500
O25         O  0.24737423  0.55876647  0.30876206    -0.57500
O26         O  0.30481486  0.60839313  0.31923548    -0.60800
In27       In  0.99933373  0.61498848  0.41669562     1.36900
C28         C  0.50170374  0.68441252  0.42183769     0.76900
O29         O  0.05534086  0.61444263  0.41983562    -0.61500
O30         O  0.03304032  0.59909775  0.38291855    -0.52400
C31         C  0.99662140  0.56464949  0.45353364     0.69600
O32         O  0.49502609  0.59677253  0.45954630    -0.47300
C33         C  0.44076918  0.60565835  0.39243110     0.74300
O34         O  0.00012722  0.66428343  0.44208735    -0.59200
O35         O  0.46837854  0.60208496  0.38053658    -0.49200
O36         O  0.50062597  0.66895672  0.39947866    -0.55600
C37         C  0.05977761  0.60435556  0.39591157     0.84500
O38         O  0.00041092  0.55861099  0.42875745    -0.57500
O39         O  0.44319879  0.61358557  0.41703000    -0.60800
In40       In  0.50759690  0.90564667  0.42037295     1.36900
C41         C  0.50595897  0.83602411  0.42442229     0.76900
O42         O  0.45168805  0.90321809  0.42113792    -0.61500
O43         O  0.47474225  0.92207806  0.38548993    -0.52400
C44         C  0.50830843  0.95552296  0.45775325     0.69600
O45         O  0.01038429  0.92330777  0.46359689    -0.47300
C46         C  0.06834126  0.91421121  0.39938742     0.74300
O47         O  0.50166479  0.85563164  0.44461197    -0.59200
O48         O  0.04169556  0.91975004  0.38617774    -0.49200
O49         O  0.01175014  0.85225809  0.40276366    -0.55600
C50         C  0.44778388  0.91459107  0.39742539     0.84500
O51         O  0.50570932  0.96189786  0.43284221    -0.57500
O52         O  0.06355752  0.90475995  0.42346885    -0.60800
In53       In  0.24557252  0.40520400  0.16744022     1.36900
C54         C  0.25100653  0.33641663  0.17567289     0.76900
O55         O  0.18954096  0.40033124  0.16795329    -0.61500
O56         O  0.21257282  0.41697293  0.13185220    -0.52400
C57         C  0.24558388  0.45567329  0.20424682     0.69600
O58         O  0.24590075  0.42351051  0.21020697    -0.47300
C59         C  0.30432175  0.41731984  0.14443176     0.74300
O60         O  0.24517719  0.35752375  0.19460522    -0.59200
O61         O  0.27692278  0.41978890  0.13177420    -0.49200
O62         O  0.25425441  0.35068473  0.15288403    -0.55600
C63         C  0.18569172  0.40929603  0.14362300     0.84500
O64         O  0.24389878  0.46196437  0.17927518    -0.57500
O65         O  0.30138702  0.40911784  0.16898007    -0.60800
In66       In  0.24510798  0.11754687  0.16993004     1.36900
C67         C  0.25247608  0.18601151  0.17674524     0.76900
O68         O  0.30067730  0.11099808  0.17181123    -0.61500
O69         O  0.27669606  0.10356848  0.13413052    -0.52400
C70         C  0.24541932  0.06782169  0.20762568     0.69600
O71         O  0.24850923  0.09993491  0.21292314    -0.47300
C72         C  0.18457960  0.11299044  0.14755469     0.74300
O73         O  0.24415710  0.16597567  0.19588822    -0.59200
O74         O  0.21097235  0.10385892  0.13553931    -0.49200
O75         O  0.25580792  0.17099832  0.15435154    -0.55600
C76         C  0.30396125  0.10421614  0.14707244     0.84500
O77         O  0.24110047  0.06148059  0.18289255    -0.57500
O78         O  0.18927652  0.12458030  0.17102750    -0.60800
In79       In  0.49341092  0.11583532  0.07393472     1.36900
C80         C  0.48677438  0.18466847  0.06849532     0.76900
O81         O  0.43720756  0.11225502  0.07295024    -0.61500
O82         O  0.46254464  0.10040361  0.10950743    -0.52400
C83         C  0.49780265  0.06585964  0.03705786     0.69600
O84         O  0.99703319  0.09807408  0.03112195    -0.47300
C85         C  0.05440798  0.11269712  0.09550389     0.74300
O86         O  0.48553252  0.16437848  0.04844938    -0.59200
O87         O  0.02842968  0.10351702  0.10812678    -0.49200
O88         O  0.99205856  0.16963472  0.09076126    -0.55600
C89         C  0.43483073  0.10414802  0.09757125     0.84500
O90         O  0.49661699  0.05930489  0.06200268    -0.57500
O91         O  0.04888906  0.12277899  0.07165704    -0.60800
In92       In  0.99369650  0.40429534  0.07111926     1.36900
C93         C  0.48884766  0.33549566  0.06611398     0.76900
O94         O  0.04937831  0.39621337  0.07064897    -0.61500
O95         O  0.02751136  0.41825691  0.10559539    -0.52400
C96         C  0.99617804  0.45498041  0.03434845     0.69600
O97         O  0.49672156  0.42288869  0.02817865    -0.47300
C98         C  0.43350036  0.41438452  0.09232262     0.74300
O99         O  0.99130423  0.35549728  0.04583098    -0.59200
O100        O  0.46024482  0.41854422  0.10563272    -0.49200
O101        O  0.48853671  0.35104862  0.08847771    -0.55600
C102        C  0.05380080  0.40732942  0.09431454     0.84500
O103        O  0.99418812  0.46080428  0.05930315    -0.57500
O104        O  0.43805354  0.40617023  0.06801791    -0.60800
C105        C  0.48322984  0.22304695  0.06633575    -0.06800
C106        C  0.99649947  0.24031186  0.04372482    -0.17900
C107        C  0.99863415  0.27696564  0.04278853     0.10400
C108        C  0.48628098  0.29693287  0.06461712    -0.06700
C109        C  0.47157033  0.27952657  0.08657862    -0.17900
C110        C  0.46965126  0.24306695  0.08759980     0.10400
S111        S  0.01974200  0.29621225  0.01430609    -0.32900
S112        S  0.44903643  0.22388603  0.11645158    -0.32900
H113        H  0.43417464  0.19630672  0.10195903     0.28500
H114        H  0.04033453  0.31782703  0.03021063     0.28400
H115        H  0.00712135  0.22511448  0.02739209     0.19000
H116        H  0.46133800  0.29446733  0.10321394     0.19000
C117        C  0.15115427  0.11112998  0.13468825    -0.06800
C118        C  0.14910545  0.11507731  0.10657170    -0.17900
C119        C  0.11819083  0.11614469  0.09321246     0.10400
C120        C  0.08819583  0.11221260  0.10811994    -0.06700
C121        C  0.09039219  0.10753401  0.13623033    -0.17900
C122        C  0.12131302  0.10684226  0.14959723     0.10400
S123        S  0.11910773  0.12247125  0.05720015    -0.32900
S124        S  0.12082482  0.09917936  0.18551569    -0.32900
H125        H  0.14850411  0.07620251  0.18541907     0.28500
H126        H  0.10202148  0.15478438  0.05855011     0.28400
H127        H  0.17180172  0.11844172  0.09490851     0.19000
H128        H  0.06779422  0.10427909  0.14802591     0.19000
C129        C  0.33738863  0.09948638  0.13451560    -0.06800
C130        C  0.36571626  0.10821014  0.14997096    -0.17900
C131        C  0.39780129  0.10842851  0.13883469     0.10400
C132        C  0.40212615  0.10038504  0.11124948    -0.06700
C133        C  0.37402040  0.09073054  0.09589683    -0.17900
C134        C  0.34197352  0.08936342  0.10730206     0.10400
S135        S  0.43163216  0.12230869  0.16036695    -0.32900
S136        S  0.30836304  0.07421315  0.08603350    -0.32900
H137        H  0.29496295  0.05189112  0.10593110     0.28500
H138        H  0.44846899  0.08991695  0.15848782     0.28400
H139        H  0.36287614  0.11597415  0.17085708     0.19000
H140        H  0.37706195  0.08395808  0.07481592     0.19000
C141        C  0.15232706  0.41015385  0.13032812    -0.06800
C142        C  0.12376091  0.40911331  0.14678384    -0.17900
C143        C  0.09149762  0.40764143  0.13577152     0.10400
C144        C  0.08721244  0.40759745  0.10742148    -0.06700
C145        C  0.11573806  0.40819072  0.09093215    -0.17900
C146        C  0.14801366  0.41002445  0.10194043     0.10400
S147        S  0.05717870  0.40413860  0.15915030    -0.32900
S148        S  0.18238603  0.41154757  0.07853657    -0.32900
H149        H  0.19345418  0.44435986  0.08787480     0.28500
H150        H  0.04118276  0.37707319  0.14486397     0.28400
H151        H  0.12652100  0.40888400  0.16855214     0.19000
H152        H  0.11289449  0.40803744  0.06916732     0.19000
C153        C  0.33713514  0.42152800  0.13106471    -0.06800
C154        C  0.33886270  0.41599928  0.10313895    -0.17900
C155        C  0.36961823  0.41400463  0.08982758     0.10400
C156        C  0.39981832  0.41799343  0.10463772    -0.06700
C157        C  0.39788321  0.42528645  0.13238181    -0.17900
C158        C  0.36705358  0.42773813  0.14557215     0.10400
S159        S  0.36815065  0.40555805  0.05411644    -0.32900
S160        S  0.36768348  0.44011513  0.18064063    -0.32900
H161        H  0.33924287  0.46194894  0.17865008     0.28500
H162        H  0.38487395  0.37313856  0.05674892     0.28400
H163        H  0.31609692  0.41162139  0.09167176     0.19000
H164        H  0.42058177  0.42929896  0.14400446     0.19000
C165        C  0.25402781  0.29806456  0.17922362    -0.06800
C166        C  0.27539846  0.27997935  0.16164204    -0.17900
C167        C  0.27760046  0.24346822  0.16210359     0.10400
C168        C  0.25689595  0.22416842  0.17977644    -0.06700
C169        C  0.23741350  0.24216816  0.19878211    -0.17900
C170        C  0.23559908  0.27887424  0.19861432     0.10400
S171        S  0.30779131  0.22320522  0.13999908    -0.32900
S172        S  0.20724521  0.29921211  0.22207220    -0.32900
H173        H  0.19228285  0.32126944  0.20259718     0.28500
H174        H  0.31607552  0.19577059  0.15796096     0.28400
H175        H  0.29061963  0.29444925  0.14736682     0.19000
H176        H  0.22180509  0.22757335  0.21269316     0.19000
C177        C  0.50759892  0.98378777  0.47816269    -0.06800
C178        C  0.49040060  0.01489768  0.47162428    -0.17900
C179        C  0.48624361  0.04166926  0.49050317     0.10400
C180        C  0.50025357  0.03792673  0.01657814    -0.06700
C181        C  0.01781578  0.00702880  0.02310213    -0.17900
C182        C  0.02211851  0.98025586  0.50412982     0.10400
S183        S  0.46105199  0.07888731  0.48049476    -0.32900
S184        S  0.04784507  0.94334837  0.01388376    -0.32900
H185        H  0.06405936  0.94068755  0.48879616     0.28500
H186        H  0.44364039  0.08092932  0.00509416     0.28400
H187        H  0.47891586  0.01791107  0.45188417     0.19000
H188        H  0.02917696  0.00413461  0.04289988     0.19000
C189        C  0.99703398  0.48332159  0.01389181    -0.06800
C190        C  0.48498216  0.47618300  0.48783193    -0.17900
C191        C  0.48336108  0.50238763  0.46801562     0.10400
C192        C  0.99496678  0.53649551  0.47400868    -0.06700
C193        C  0.00670717  0.54371651  0.00008606    -0.17900
C194        C  0.00825888  0.51758500  0.01990582     0.10400
S195        S  0.46455639  0.49097404  0.43609676    -0.32900
S196        S  0.02650856  0.52946652  0.05188815    -0.32900
H197        H  0.04608190  0.49879430  0.05412191     0.28500
H198        H  0.44666470  0.52268112  0.43327771     0.28400
H199        H  0.47573389  0.45023510  0.48307078     0.19000
H200        H  0.01592059  0.56968175  0.00484008     0.19000
C201        C  0.50475946  0.72295074  0.42377819    -0.06800
C202        C  0.48771137  0.74093514  0.44428223    -0.17900
C203        C  0.48706193  0.77775857  0.44497478     0.10400
C204        C  0.50497902  0.79716532  0.42536585    -0.06700
C205        C  0.02258198  0.77895090  0.40532856    -0.17900
C206        C  0.02290037  0.74238934  0.40441995     0.10400
S207        S  0.46085323  0.79816720  0.46995756    -0.32900
S208        S  0.04795622  0.72226541  0.37845171    -0.32900
H209        H  0.06017587  0.69501736  0.39507633     0.28500
H210        H  0.44652553  0.82240790  0.45173071     0.28400
H211        H  0.47340400  0.72627785  0.45903587     0.19000
H212        H  0.03672737  0.79333026  0.39030911     0.19000
C213        C  0.24671188  0.53868252  0.26298856    -0.06800
C214        C  0.25990974  0.50555316  0.26958799    -0.17900
C215        C  0.26064003  0.47836528  0.25078385     0.10400
C216        C  0.24705124  0.48383002  0.22468846    -0.06700
C217        C  0.23413710  0.51708452  0.21796762    -0.17900
C218        C  0.23351949  0.54435515  0.23680053     0.10400
S219        S  0.28071303  0.43803878  0.26114160    -0.32900
S220        S  0.21402760  0.58499047  0.22649401    -0.32900
H221        H  0.19613458  0.58934141  0.25068475     0.28500
H222        H  0.29911791  0.43442559  0.23711915     0.28400
H223        H  0.27058544  0.50097902  0.28944678     0.19000
H224        H  0.22351993  0.52164428  0.19809155     0.19000
C225        C  0.09329226  0.60056599  0.38339998    -0.06800
C226        C  0.09511791  0.60026378  0.35508875    -0.17900
C227        C  0.12597693  0.60027754  0.34169061     0.11200
C228        C  0.15595414  0.60075217  0.35693276    -0.06700
C229        C  0.15420593  0.59894929  0.38520678    -0.17900
C230        C  0.12330472  0.59873766  0.39863154     0.10400
S231        S  0.12643506  0.59918319  0.30519619    -0.32900
S232        S  0.12300654  0.59602755  0.43507268    -0.32900
H233        H  0.15706569  0.58736423  0.43843942     0.28500
H234        H  0.09173657  0.59512033  0.30131062     0.28400
H235        H  0.07221909  0.60102537  0.34335309     0.19000
H236        H  0.17717334  0.59887301  0.39687061     0.19000
C237        C  0.34309744  0.59916309  0.35612461    -0.06800
C238        C  0.37067952  0.60987832  0.34064461    -0.17900
C239        C  0.40299233  0.61059425  0.35150500     0.10400
C240        C  0.40808959  0.60140218  0.37885494    -0.06700
C241        C  0.38080466  0.58956296  0.39412828    -0.17900
C242        C  0.34865473  0.58745447  0.38292547     0.10400
S243        S  0.43608775  0.62624102  0.33004488    -0.32900
S244        S  0.31626124  0.56891315  0.40375816    -0.32900
H245        H  0.30231239  0.54880777  0.38280195     0.28500
H246        H  0.45374115  0.59424410  0.33127880     0.28400
H247        H  0.36702240  0.61871628  0.32001432     0.19000
H248        H  0.38461999  0.58153973  0.41494045     0.19000
C249        C  0.25251102  0.98277356  0.26539124    -0.06800
C250        C  0.25163346  0.01770862  0.27435487    -0.17900
C251        C  0.24990683  0.04593238  0.25628263     0.10400
C252        C  0.24750606  0.03950124  0.22822858    -0.06700
C253        C  0.24788233  0.00458813  0.21926334    -0.17900
C254        C  0.25112463  0.97641688  0.23726747     0.10400
S255        S  0.25116334  0.08924369  0.27059566    -0.32900
S256        S  0.25417736  0.93337036  0.22268709    -0.32900
H257        H  0.28448255  0.92548725  0.23605387     0.28500
H258        H  0.28085228  0.09815698  0.25695659     0.28400
H259        H  0.25286777  0.02330828  0.29576099     0.19000
H260        H  0.24659062  0.99903722  0.19785003     0.19000
C261        C  0.35153448  0.91397857  0.35765144    -0.06800
C262        C  0.35361962  0.91822356  0.38578265    -0.17900
C263        C  0.38447986  0.92032977  0.39909974     0.10400
C264        C  0.41450156  0.91725749  0.38424336    -0.06700
C265        C  0.41259902  0.91387469  0.35608683    -0.17900
C266        C  0.38170149  0.91186253  0.34269480     0.10400
S267        S  0.38361930  0.92833253  0.43492173    -0.32900
S268        S  0.38294421  0.90562532  0.30670851    -0.32900
H269        H  0.36374507  0.87474520  0.30769737     0.28500
H270        H  0.41056636  0.95205733  0.43452444     0.28400
H271        H  0.33095621  0.92036437  0.39764523     0.19000
H272        H  0.43541137  0.91135381  0.34444338     0.19000
C273        C  0.16491403  0.92027745  0.36078104    -0.06800
C274        C  0.16318189  0.91778442  0.38898375    -0.17900
C275        C  0.13229136  0.91642912  0.40227297     0.10400
C276        C  0.10210812  0.91761148  0.38709429    -0.06700
C277        C  0.10409405  0.92203214  0.35895988    -0.17900
C278        C  0.13495612  0.92403329  0.34579836     0.10400
S279        S  0.13337468  0.91360904  0.43853475    -0.32900
S280        S  0.13438840  0.93282038  0.31000515    -0.32900
H281        H  0.16309484  0.95418277  0.31031732     0.28500
H282        H  0.11946664  0.87973759  0.43888443     0.28400
H283        H  0.18604662  0.91553656  0.40073591     0.19000
H284        H  0.08140100  0.92404014  0.34698377     0.19000
C285        C  0.25586162  0.79659627  0.31737541    -0.06800
C286        C  0.27416910  0.77764066  0.33681272    -0.17900
C287        C  0.27472634  0.74102799  0.33692087     0.10400
C288        C  0.25604617  0.72243313  0.31740039    -0.06700
C289        C  0.23829378  0.74126921  0.29753522    -0.17900
C290        C  0.23749847  0.77806219  0.29761163     0.10400
S291        S  0.30061178  0.71974566  0.36209859    -0.32900
S292        S  0.21047490  0.79958142  0.27345057    -0.32900
H293        H  0.19727624  0.82364152  0.29211660     0.28500
H294        H  0.31209999  0.69306793  0.34485582     0.28400
H295        H  0.28860859  0.79149305  0.35193443     0.19000
H296        H  0.22353755  0.72725795  0.28270948     0.19000
In297      In  0.25658885  0.90479450  0.82407463     1.36900
C298        C  0.25626697  0.83531642  0.81904726     0.76900
O299        O  0.31241601  0.90918388  0.82020404    -0.61500
O300        O  0.29123176  0.91220960  0.85916080    -0.52400
C301        C  0.25432927  0.95442574  0.78609365     0.69600
O302        O  0.25429856  0.92210166  0.78071156    -0.47300
C303        C  0.19775804  0.91583052  0.84755502     0.74300
O304        O  0.25358229  0.85557712  0.79892653    -0.59200
O305        O  0.22504950  0.92488783  0.85834191    -0.49200
O306        O  0.25968570  0.85077249  0.84126170    -0.55600
C307        C  0.31762454  0.91187549  0.84521052     0.84500
O308        O  0.25576474  0.96099354  0.81101280    -0.57500
O309        O  0.20082753  0.90137123  0.82489799    -0.60800
In310      In  0.24923314  0.61442650  0.82233105     1.36900
C311        C  0.25288813  0.68386260  0.81860594     0.76900
O312        O  0.19345758  0.61956222  0.82174190    -0.61500
O313        O  0.21601169  0.59449980  0.85549045    -0.52400
C314        C  0.24754281  0.56620187  0.78393491     0.69600
O315        O  0.24896961  0.59862216  0.77874185    -0.47300
C316        C  0.30924210  0.60315428  0.84413810     0.74300
O317        O  0.25012995  0.66475111  0.79797348    -0.59200
O318        O  0.28264845  0.60324348  0.85779208    -0.49200
O319        O  0.25258327  0.66739453  0.84065881    -0.55600
C320        C  0.18926631  0.60466570  0.84422393     0.84500
O321        O  0.24737465  0.55876441  0.80876219    -0.57500
O322        O  0.30481588  0.60838784  0.81923725    -0.60800
In323      In  0.99933375  0.61499164  0.91669697     1.36900
C324        C  0.50170067  0.68441013  0.92183889     0.76900
O325        O  0.05534136  0.61444268  0.91983387    -0.61500
O326        O  0.03303781  0.59910519  0.88291629    -0.52400
C327        C  0.99661914  0.56465339  0.95353649     0.69600
O328        O  0.49502358  0.59677203  0.95954970    -0.47300
C329        C  0.44076942  0.60565560  0.89243287     0.74300
O330        O  0.00013260  0.66428756  0.94208763    -0.59200
O331        O  0.46837887  0.60207965  0.88053898    -0.49200
O332        O  0.50062715  0.66895345  0.89948018    -0.55600
C333        C  0.05977622  0.60435948  0.89590861     0.84500
O334        O  0.00040648  0.55861397  0.92876023    -0.57500
O335        O  0.44319850  0.61358407  0.91703148    -0.60800
In336      In  0.50759287  0.90564305  0.92037191     1.36900
C337        C  0.50595142  0.83602119  0.92442188     0.76900
O338        O  0.45168390  0.90321875  0.92113783    -0.61500
O339        O  0.47473853  0.92207598  0.88548922    -0.52400
C340        C  0.50830821  0.95551921  0.95775249     0.69600
O341        O  0.01038718  0.92331317  0.96359556    -0.47300
C342        C  0.06833937  0.91421939  0.89938655     0.74300
O343        O  0.50166065  0.85562897  0.94461190    -0.59200
O344        O  0.04169380  0.91975942  0.88617701    -0.49200
O345        O  0.01175314  0.85226321  0.90276180    -0.55600
C346        C  0.44777990  0.91459130  0.89742517     0.84500
O347        O  0.50571115  0.96189456  0.93284138    -0.57500
O348        O  0.06355551  0.90476642  0.92346754    -0.60800
In349      In  0.24557223  0.40520579  0.66743996     1.36900
C350        C  0.25100719  0.33641852  0.67567263     0.76900
O351        O  0.18954005  0.40033666  0.66795521    -0.61500
O352        O  0.21257059  0.41697419  0.63185267    -0.52400
C353        C  0.24558957  0.45567356  0.70424715     0.69600
O354        O  0.24590430  0.42351071  0.71020707    -0.47300
C355        C  0.30432004  0.41732090  0.64442957     0.74300
O356        O  0.24517220  0.35752496  0.69460424    -0.59200
O357        O  0.27692071  0.41978672  0.63177208    -0.49200
O358        O  0.25426059  0.35068737  0.65288463    -0.55600
C359        C  0.18568974  0.40929927  0.64362462     0.84500
O360        O  0.24390396  0.46196534  0.67927560    -0.57500
O361        O  0.30138624  0.40912344  0.66897887    -0.60800
In362      In  0.24511084  0.11754619  0.66993361     1.36900
C363        C  0.25247812  0.18601225  0.67674455     0.76900
O364        O  0.30067947  0.11099917  0.67181753    -0.61500
O365        O  0.27669927  0.10355388  0.63413795    -0.52400
C366        C  0.24541668  0.06782326  0.70763139     0.69600
O367        O  0.24851926  0.09993549  0.71292762    -0.47300
C368        C  0.18458525  0.11298902  0.64755402     0.74300
O369        O  0.24414785  0.16597940  0.69588619    -0.59200
O370        O  0.21097931  0.10385839  0.63554000    -0.49200
O371        O  0.25582227  0.17099529  0.65435353    -0.55600
C372        C  0.30396399  0.10420776  0.64708034     0.84500
O373        O  0.24108900  0.06148287  0.68289925    -0.57500
O374        O  0.18928008  0.12458083  0.67102655    -0.60800
In375      In  0.49340447  0.11583870  0.57393504     1.36900
C376        C  0.48676616  0.18467223  0.56849567     0.76900
O377        O  0.43720165  0.11225117  0.57295374    -0.61500
O378        O  0.46254372  0.10040350  0.60950969    -0.52400
C379        C  0.49779515  0.06586324  0.53705798     0.69600
O380        O  0.99703723  0.09807007  0.53112137    -0.47300
C381        C  0.05441360  0.11268656  0.59550333     0.74300
O382        O  0.48552357  0.16438201  0.54844997    -0.59200
O383        O  0.02843574  0.10349977  0.60812410    -0.49200
O384        O  0.99206658  0.16963026  0.59076259    -0.55600
C385        C  0.43482848  0.10414464  0.59757504     0.84500
O386        O  0.49661445  0.05930864  0.56200304    -0.57500
O387        O  0.04889404  0.12277895  0.57165915    -0.60800
In388      In  0.99369475  0.40429351  0.57111915     1.36900
C389        C  0.48884448  0.33549903  0.56611297     0.76900
O390        O  0.04937595  0.39620911  0.57065233    -0.61500
O391        O  0.02750823  0.41825876  0.60559613    -0.52400
C392        C  0.99617991  0.45497739  0.53434649     0.69600
O393        O  0.49672188  0.42289144  0.52817616    -0.47300
C394        C  0.43349784  0.41438400  0.59231932     0.74300
O395        O  0.99130624  0.35549463  0.54583087    -0.59200
O396        O  0.46024196  0.41854654  0.60562936    -0.49200
O397        O  0.48853692  0.35105241  0.58847651    -0.55600
C398        C  0.05379779  0.40732825  0.59431710     0.84500
O399        O  0.99419020  0.46080253  0.55930109    -0.57500
O400        O  0.43805143  0.40617049  0.56801452    -0.60800
C401        C  0.48322247  0.22305075  0.56633580    -0.06800
C402        C  0.99650697  0.24030887  0.54372680    -0.17900
C403        C  0.99863900  0.27696285  0.54278978     0.10400
C404        C  0.48627619  0.29693647  0.56461669    -0.06700
C405        C  0.47156225  0.27953124  0.58657724    -0.17900
C406        C  0.46964257  0.24307156  0.58759892     0.10400
S407        S  0.01974700  0.29620988  0.51430762    -0.32900
S408        S  0.44902683  0.22389171  0.61645069    -0.32900
H409        H  0.43416770  0.19630988  0.60195926     0.28500
H410        H  0.04033819  0.31782562  0.53021251     0.28400
H411        H  0.00713021  0.22511181  0.52739452     0.19000
H412        H  0.46132862  0.29447284  0.60321154     0.19000
C413        C  0.15116033  0.11112385  0.63468718    -0.06800
C414        C  0.14911146  0.11506238  0.60656995    -0.17900
C415        C  0.11819668  0.11612524  0.59321066     0.10400
C416        C  0.08820164  0.11219983  0.60811908    -0.06700
C417        C  0.09039811  0.10752780  0.63623000    -0.17900
C418        C  0.12131913  0.10683846  0.64959672     0.10400
S419        S  0.11911282  0.12243406  0.55719665    -0.32900
S420        S  0.12083144  0.09918120  0.68551586    -0.32900
H421        H  0.14850987  0.07620310  0.68542072     0.28500
H422        H  0.10204126  0.15475621  0.55853923     0.28400
H423        H  0.17180778  0.11842253  0.59490599     0.19000
H424        H  0.06780002  0.10427679  0.64802611     0.19000
C425        C  0.33739153  0.09947649  0.63452486    -0.06800
C426        C  0.36571742  0.10821993  0.64997545    -0.17900
C427        C  0.39780132  0.10844125  0.63883748     0.10400
C428        C  0.40212641  0.10037928  0.61125570    -0.06700
C429        C  0.37402297  0.09070449  0.59590826    -0.17900
C430        C  0.34197736  0.08933537  0.60731552     0.10400
S431        S  0.43162929  0.12235194  0.66036080    -0.32900
S432        S  0.30836974  0.07415917  0.58605519    -0.32900
H433        H  0.29497277  0.05185305  0.60596472     0.28500
H434        H  0.44847619  0.08996426  0.65849765     0.28400
H435        H  0.36287634  0.11599876  0.67085812     0.19000
H436        H  0.37706544  0.08391813  0.57483015     0.19000
C437        C  0.15232440  0.41015599  0.63033045    -0.06800
C438        C  0.12375848  0.40911513  0.64678655    -0.17900
C439        C  0.09149485  0.40764222  0.63577455     0.10400
C440        C  0.08720924  0.40759690  0.60742452    -0.06700
C441        C  0.11573461  0.40818976  0.59093505    -0.17900
C442        C  0.14801026  0.41002522  0.60194285     0.10400
S443        S  0.05717615  0.40414016  0.65915359    -0.32900
S444        S  0.18238166  0.41154986  0.57853824    -0.32900
H445        H  0.19344894  0.44436251  0.58787643     0.28500
H446        H  0.04117814  0.37707661  0.64486670     0.28400
H447        H  0.12651904  0.40888663  0.66855482     0.19000
H448        H  0.11289078  0.40803550  0.56917023     0.19000
C449        C  0.33713294  0.42152694  0.63106157    -0.06800
C450        C  0.33886042  0.41599052  0.60313675    -0.17900
C451        C  0.36961584  0.41399378  0.58982545     0.10400
C452        C  0.39981580  0.41798973  0.60463456    -0.06700
C453        C  0.39788072  0.42528833  0.63237771    -0.17900
C454        C  0.36705127  0.42774151  0.64556791     0.10400
S455        S  0.36814819  0.40553419  0.55411613    -0.32900
S456        S  0.36768113  0.44012698  0.68063453    -0.32900
H457        H  0.33924071  0.46196055  0.67864050     0.28500
H458        H  0.38488186  0.37312120  0.55675398     0.28400
H459        H  0.31609467  0.41160792  0.59167052     0.19000
H460        H  0.42057920  0.42930513  0.64399961     0.19000
C461        C  0.25402820  0.29806635  0.67922302    -0.06800
C462        C  0.27540115  0.27998159  0.66164293    -0.17900
C463        C  0.27760332  0.24347038  0.66210405     0.10400
C464        C  0.25689601  0.22416990  0.67977451    -0.06700
C465        C  0.23741077  0.24216939  0.69877850    -0.17900
C466        C  0.23559708  0.27887539  0.69861184     0.10400
S467        S  0.30779944  0.22320879  0.64000347    -0.32900
S468        S  0.20724286  0.29921241  0.72206984    -0.32900
H469        H  0.19228006  0.32126927  0.70259474     0.28500
H470        H  0.31608352  0.19577687  0.65796783     0.28400
H471        H  0.29062458  0.29445200  0.64736957     0.19000
H472        H  0.22180061  0.22757433  0.71268828     0.19000
C473        C  0.50760063  0.98378384  0.97816219    -0.06800
C474        C  0.49040426  0.01489506  0.97162418    -0.17900
C475        C  0.48624966  0.04166687  0.99050325     0.10400
C476        C  0.50024719  0.03793030  0.51657832    -0.06700
C477        C  0.01781453  0.00702219  0.52310307    -0.17900
C478        C  0.02211963  0.98026301  0.00412834     0.10400
S479        S  0.46106072  0.07888725  0.98049558    -0.32900
S480        S  0.04783789  0.94333764  0.51388781    -0.32900
H481        H  0.06406312  0.94070087  0.98879051     0.28500
H482        H  0.44363069  0.08092764  0.50509297     0.28400
H483        H  0.47891928  0.01790941  0.95188424     0.19000
H484        H  0.02917225  0.00412654  0.54290199     0.19000
C485        C  0.99703847  0.48331758  0.51388878    -0.06800
C486        C  0.48498280  0.47618234  0.98783605    -0.17900
C487        C  0.48335942  0.50238794  0.96802063     0.10400
C488        C  0.99496208  0.53649998  0.97401215    -0.06700
C489        C  0.00671326  0.54371195  0.50008211    -0.17900
C490        C  0.00826476  0.51758077  0.51990208     0.10400
S491        S  0.46454963  0.49097652  0.93610325    -0.32900
S492        S  0.02651483  0.52946298  0.55188409    -0.32900
H493        H  0.04608603  0.49878945  0.55411922     0.28500
H494        H  0.44666191  0.52268610  0.93328465     0.28400
H495        H  0.47573308  0.45023491  0.98307502     0.19000
H496        H  0.01592708  0.56967712  0.50483577     0.19000
C497        C  0.50475499  0.72294833  0.92377880    -0.06800
C498        C  0.48770610  0.74093248  0.94428250    -0.17900
C499        C  0.48705619  0.77775578  0.94497518     0.10400
C500        C  0.50497264  0.79716263  0.92536601    -0.06700
C501        C  0.02258097  0.77895473  0.90532570    -0.17900
C502        C  0.02290039  0.74239296  0.90441793     0.10400
S503        S  0.46084895  0.79816424  0.96995902    -0.32900
S504        S  0.04795637  0.72226830  0.87845006    -0.32900
H505        H  0.06017450  0.69501921  0.89507438     0.28500
H506        H  0.44652085  0.82240579  0.95173306     0.28400
H507        H  0.47339889  0.72627487  0.95903627     0.19000
H508        H  0.03672594  0.79333397  0.89030577     0.19000
C509        C  0.24671765  0.53868218  0.76298859    -0.06800
C510        C  0.25991250  0.50555197  0.76958920    -0.17900
C511        C  0.26064355  0.47836408  0.75078525     0.10400
C512        C  0.24705836  0.48382994  0.72468877    -0.06700
C513        C  0.23414785  0.51708548  0.71796668    -0.17900
C514        C  0.23352980  0.54435616  0.73679930     0.10400
S515        S  0.28071249  0.43803626  0.76114503    -0.32900
S516        S  0.21404358  0.58499340  0.72649033    -0.32900
H517        H  0.19614667  0.58934664  0.75067892     0.28500
H518        H  0.29911818  0.43441960  0.73712333     0.28400
H519        H  0.27058513  0.50097700  0.78944903     0.19000
H520        H  0.22353364  0.52164615  0.69808973     0.19000
C521        C  0.09329035  0.60057030  0.88339566    -0.06800
C522        C  0.09511567  0.60027769  0.85508413    -0.17900
C523        C  0.12597538  0.60029034  0.84168588     0.11200
C524        C  0.15595263  0.60074834  0.85692872    -0.06700
C525        C  0.15420374  0.59893727  0.88520249    -0.17900
C526        C  0.12330227  0.59873024  0.89862694     0.10400
S527        S  0.12643760  0.59919889  0.80519073    -0.32900
S528        S  0.12300293  0.59600690  0.93506764    -0.32900
H529        H  0.15706208  0.58734343  0.93843393     0.28500
H530        H  0.09170603  0.59548150  0.80128614     0.28400
H531        H  0.07221637  0.60103880  0.84335039     0.19000
H532        H  0.17717066  0.59885081  0.89686627     0.19000
C533        C  0.34309835  0.59916242  0.85612641    -0.06800
C534        C  0.37067917  0.60988517  0.84064799    -0.17900
C535        C  0.40299205  0.61060046  0.85150814     0.10400
C536        C  0.40809017  0.60140097  0.87885645    -0.06700
C537        C  0.38080636  0.58955603  0.89412839    -0.17900
C538        C  0.34865663  0.58744739  0.88292538     0.10400
S539        S  0.43608645  0.62625512  0.83005037    -0.32900
S540        S  0.31626498  0.56889612  0.90375467    -0.32900
H541        H  0.30231644  0.54879760  0.88279441     0.28500
H542        H  0.45374110  0.59425862  0.83127848     0.28400
H543        H  0.36702100  0.61872869  0.82001928     0.19000
H544        H  0.38462267  0.58152769  0.91493928     0.19000
C545        C  0.25250845  0.98277281  0.76539432    -0.06800
C546        C  0.25162144  0.01770699  0.77435955    -0.17900
C547        C  0.24989226  0.04593181  0.75628842     0.10400
C548        C  0.24750111  0.03950222  0.72823378    -0.06700
C549        C  0.24788585  0.00458989  0.71926694    -0.17900
C550        C  0.25112893  0.97641791  0.73727016     0.10400
S551        S  0.25112788  0.08924260  0.77060339    -0.32900
S552        S  0.25419121  0.93337298  0.72268821    -0.32900
H553        H  0.28449514  0.92549410  0.73605829     0.28500
H554        H  0.28082593  0.09816287  0.75697996     0.28400
H555        H  0.25284871  0.02330524  0.79576620     0.19000
H556        H  0.24660080  0.99904044  0.69785324     0.19000
C557        C  0.35153086  0.91397790  0.85765134    -0.06800
C558        C  0.35361558  0.91821986  0.88578279    -0.17900
C559        C  0.38447559  0.92032709  0.89909999     0.10400
C560        C  0.41449753  0.91725902  0.88424335    -0.06700
C561        C  0.41259525  0.91388027  0.85608649    -0.17900
C562        C  0.38169791  0.91186682  0.84269442     0.10400
S563        S  0.38361411  0.92832491  0.93492261    -0.32900
S564        S  0.38294097  0.90563320  0.80670777    -0.32900
H565        H  0.36374596  0.87475017  0.80769530     0.28500
H566        H  0.41055853  0.95205304  0.93452689     0.28400
H567        H  0.33095207  0.92035715  0.89764551     0.19000
H568        H  0.43540772  0.91136280  0.84444275     0.19000
C569        C  0.16491211  0.92027946  0.86078012    -0.06800
C570        C  0.16317989  0.91779169  0.88898315    -0.17900
C571        C  0.13228924  0.91643906  0.90227239     0.10400
C572        C  0.10210616  0.91761904  0.88709347    -0.06700
C573        C  0.10409221  0.92203518  0.85895873    -0.17900
C574        C  0.13495426  0.92403358  0.84579711     0.10400
S575        S  0.13337208  0.91362556  0.93853447    -0.32900
S576        S  0.13438645  0.93281491  0.81000316    -0.32900
H577        H  0.16309102  0.95418010  0.81031420     0.28500
H578        H  0.11946565  0.87975344  0.93888766     0.28400
H579        H  0.18604442  0.91554575  0.90073564     0.19000
H580        H  0.08139922  0.92404125  0.84698233     0.19000
C581        C  0.25586581  0.79659232  0.81737200    -0.06800
C582        C  0.27417339  0.77763803  0.83681003    -0.17900
C583        C  0.27473156  0.74102534  0.83691916     0.10400
C584        C  0.25605452  0.72242913  0.81739744    -0.06700
C585        C  0.23830454  0.74126402  0.79753019    -0.17900
C586        C  0.23750598  0.77805690  0.79760703     0.10400
S587        S  0.30061163  0.71974503  0.86210145    -0.32900
S588        S  0.21047977  0.79957387  0.77344677    -0.32900
H589        H  0.19727717  0.82362975  0.79211424     0.28500
H590        H  0.31210278  0.69306528  0.84486181     0.28400
H591        H  0.28861044  0.79149138  0.85193259     0.19000
H592        H  0.22355054  0.72725180  0.78270350     0.19000
In593      In  0.75659158  0.90479370  0.32407543     1.36900
C594        C  0.75626802  0.83531624  0.31904612     0.76900
O595        O  0.81241884  0.90918672  0.32020671    -0.61500
O596        O  0.79123321  0.91220618  0.35916321    -0.52400
C597        C  0.75433141  0.95442412  0.28609370     0.69600
O598        O  0.75430507  0.92209998  0.28071199    -0.47300
C599        C  0.69776025  0.91582507  0.34755610     0.74300
O600        O  0.75357774  0.85557765  0.29892626    -0.59200
O601        O  0.72505056  0.92489096  0.35834049    -0.49200
O602        O  0.75969592  0.85077154  0.34126002    -0.55600
C603        C  0.81762653  0.91187567  0.34521352     0.84500
O604        O  0.75576253  0.96099250  0.31101288    -0.57500
O605        O  0.70083125  0.90135891  0.32490190    -0.60800
In606      In  0.74923367  0.61442608  0.32232982     1.36900
C607        C  0.75288142  0.68386243  0.31860560     0.76900
O608        O  0.69345845  0.61955728  0.32174175    -0.61500
O609        O  0.71601605  0.59450564  0.35549370    -0.52400
C610        C  0.74754246  0.56619911  0.28393554     0.69600
O611        O  0.74896795  0.59861921  0.27874144    -0.47300
C612        C  0.80924496  0.60315506  0.34413199     0.74300
O613        O  0.75012285  0.66475153  0.29797287    -0.59200
O614        O  0.78265275  0.60324130  0.35778777    -0.49200
O615        O  0.75258143  0.66739346  0.34065811    -0.55600
C616        C  0.68926959  0.60466732  0.34422659     0.84500
O617        O  0.74737562  0.55876275  0.30876307    -0.57500
O618        O  0.80481653  0.60839207  0.31923179    -0.60800
In619      In  0.49933613  0.61499099  0.41669506     1.36900
C620        C  0.00169897  0.68440938  0.42184102     0.76900
O621        O  0.55534340  0.61444172  0.41983488    -0.61500
O622        O  0.53304228  0.59910325  0.38291649    -0.52400
C623        C  0.49662247  0.56465317  0.45353422     0.69600
O624        O  0.99502507  0.59676862  0.45954639    -0.47300
C625        C  0.94076978  0.60565912  0.39242803     0.74300
O626        O  0.50013856  0.66428735  0.44208489    -0.59200
O627        O  0.96837967  0.60209360  0.38053304    -0.49200
O628        O  0.00062825  0.66895453  0.39948147    -0.55600
C629        C  0.55977980  0.60435729  0.39591016     0.84500
O630        O  0.50041331  0.55861396  0.42875831    -0.57500
O631        O  0.94319719  0.61357564  0.41702906    -0.60800
In632      In  0.00759599  0.90564168  0.42037538     1.36900
C633        C  0.00595485  0.83602006  0.42442749     0.76900
O634        O  0.95168701  0.90321284  0.42114110    -0.61500
O635        O  0.97473978  0.92207882  0.38549464    -0.52400
C636        C  0.00831146  0.95551848  0.45775502     0.69600
O637        O  0.51038829  0.92331257  0.46359479    -0.47300
C638        C  0.56834133  0.91422288  0.39938670     0.74300
O639        O  0.00166458  0.85562852  0.44461715    -0.59200
O640        O  0.54169572  0.91976304  0.38617723    -0.49200
O641        O  0.51175743  0.85226346  0.40275962    -0.55600
C642        C  0.94778177  0.91458962  0.39742981     0.84500
O643        O  0.00571767  0.96189374  0.43284366    -0.57500
O644        O  0.56355792  0.90476845  0.42346743    -0.60800
In645      In  0.74557606  0.40520060  0.16744282     1.36900
C646        C  0.75101001  0.33641390  0.17567640     0.76900
O647        O  0.68954375  0.40033155  0.16795769    -0.61500
O648        O  0.71257529  0.41696318  0.13185393    -0.52400
C649        C  0.74559157  0.45566953  0.20424907     0.69600
O650        O  0.74590769  0.42350690  0.21020963    -0.47300
C651        C  0.80432409  0.41731702  0.14443305     0.74300
O652        O  0.74517643  0.35752094  0.19460790    -0.59200
O653        O  0.77692435  0.41979029  0.13177703    -0.49200
O654        O  0.75426255  0.35068191  0.15288796    -0.55600
C655        C  0.68569409  0.40929072  0.14362627     0.84500
O656        O  0.74390554  0.46196047  0.17927746    -0.57500
O657        O  0.80139093  0.40911078  0.16898071    -0.60800
In658      In  0.74510944  0.11754356  0.16993449     1.36900
C659        C  0.75247686  0.18600859  0.17674856     0.76900
O660        O  0.80067844  0.11099554  0.17181910    -0.61500
O661        O  0.77669932  0.10355467  0.13413871    -0.52400
C662        C  0.74541633  0.06781986  0.20763069     0.69600
O663        O  0.74851832  0.09993198  0.21292734    -0.47300
C664        C  0.68458321  0.11298612  0.14755536     0.74300
O665        O  0.74414973  0.16597425  0.19589017    -0.59200
O666        O  0.71097729  0.10385519  0.13554148    -0.49200
O667        O  0.75581669  0.17099372  0.15435627    -0.55600
C668        C  0.80396366  0.10420609  0.14708171     0.84500
O669        O  0.74108772  0.06147971  0.18289860    -0.57500
O670        O  0.68927827  0.12457820  0.17102780    -0.60800
In671      In  0.99340482  0.11583839  0.07393836     1.36900
C672        C  0.98676650  0.18467146  0.06849734     0.76900
O673        O  0.93720180  0.11225418  0.07295729    -0.61500
O674        O  0.96254404  0.10039932  0.10951187    -0.52400
C675        C  0.99779753  0.06586246  0.03706162     0.69600
O676        O  0.49704181  0.09807135  0.03111816    -0.47300
C677        C  0.55441366  0.11268696  0.09550088     0.74300
O678        O  0.98552561  0.16438070  0.04845188    -0.59200
O679        O  0.52843510  0.10350138  0.10812118    -0.49200
O680        O  0.49206818  0.16963104  0.09075879    -0.55600
C681        C  0.93482875  0.10414341  0.09757783     0.84500
O682        O  0.99661490  0.05930777  0.06200658    -0.57500
O683        O  0.54889537  0.12277917  0.07165644    -0.60800
In684      In  0.49369755  0.40429369  0.07112213     1.36900
C685        C  0.98884676  0.33549785  0.06611249     0.76900
O686        O  0.54937902  0.39620863  0.07065378    -0.61500
O687        O  0.52751205  0.41825379  0.10559939    -0.52400
C688        C  0.49618197  0.45497885  0.03435045     0.69600
O689        O  0.99672335  0.42289041  0.02817644    -0.47300
C690        C  0.93349984  0.41438343  0.09232025     0.74300
O691        O  0.49130937  0.35549565  0.04583319    -0.59200
O692        O  0.96024443  0.41854501  0.10562984    -0.49200
O693        O  0.98854078  0.35105101  0.08847618    -0.55600
C694        C  0.55380149  0.40732499  0.09431926     0.84500
O695        O  0.49419625  0.46080286  0.05930536    -0.57500
O696        O  0.93805254  0.40616874  0.06801556    -0.60800
C697        C  0.98322357  0.22304997  0.06633671    -0.06800
C698        C  0.49650417  0.24031039  0.04372402    -0.17900
C699        C  0.49863682  0.27696436  0.04278844     0.10400
C700        C  0.98627854  0.29693544  0.06461648    -0.06700
C701        C  0.97156656  0.27953094  0.08657813    -0.17900
C702        C  0.96964585  0.24307157  0.08760025     0.10400
S703        S  0.51974212  0.29621278  0.01430553    -0.32900
S704        S  0.94903096  0.22389328  0.11645299    -0.32900
H705        H  0.93416764  0.19631384  0.10196163     0.28500
H706        H  0.54033731  0.31782473  0.03021014     0.28400
H707        H  0.50712619  0.22511419  0.02739081     0.19000
H708        H  0.96133463  0.29447301  0.10321294     0.19000
C709        C  0.65115834  0.11112153  0.13468802    -0.06800
C710        C  0.64911111  0.11505514  0.10657025    -0.17900
C711        C  0.61819709  0.11611960  0.09320991     0.10400
C712        C  0.58820104  0.11219906  0.10811763    -0.06700
C713        C  0.59039566  0.10753144  0.13622903    -0.17900
C714        C  0.62131581  0.10684244  0.14959706     0.10400
S715        S  0.61911543  0.12242560  0.05719565    -0.32900
S716        S  0.62082463  0.09919607  0.18551750    -0.32900
H717        H  0.64849989  0.07621374  0.18542756     0.28500
H718        H  0.60204575  0.15474901  0.05853616     0.28400
H719        H  0.67180823  0.11841111  0.09490660     0.19000
H720        H  0.56779660  0.10428487  0.14802470     0.19000
C721        C  0.83739149  0.09947383  0.13452680    -0.06800
C722        C  0.86571766  0.10821307  0.14997856    -0.17900
C723        C  0.89780188  0.10843366  0.13884101     0.10400
C724        C  0.90212673  0.10037645  0.11125834    -0.06700
C725        C  0.87402306  0.09070497  0.09590993    -0.17900
C726        C  0.84197737  0.08933535  0.10731693     0.10400
S727        S  0.93163088  0.12233675  0.16036632    -0.32900
S728        S  0.80836963  0.07416133  0.08605581    -0.32900
H729        H  0.79497248  0.05185378  0.10596435     0.28500
H730        H  0.94847609  0.08994862  0.15849812     0.28400
H731        H  0.86287658  0.11598892  0.17086193     0.19000
H732        H  0.87706545  0.08392140  0.07483129     0.19000
C733        C  0.65232893  0.41014758  0.13033188    -0.06800
C734        C  0.62376296  0.40911379  0.14678810    -0.17900
C735        C  0.59149915  0.40764302  0.13577638     0.10400
C736        C  0.58721332  0.40759242  0.10742638    -0.06700
C737        C  0.61573884  0.40817862  0.09093673    -0.17900
C738        C  0.64801483  0.41001165  0.10194433     0.10400
S739        S  0.55718028  0.40415164  0.15915617    -0.32900
S740        S  0.68238678  0.41152576  0.07853977    -0.32900
H741        H  0.69345747  0.44433972  0.08787260     0.28500
H742        H  0.54118184  0.37708291  0.14487539     0.28400
H743        H  0.62652355  0.40888963  0.16855637     0.19000
H744        H  0.61289504  0.40802044  0.06917202     0.19000
C745        C  0.83713652  0.42152502  0.13106480    -0.06800
C746        C  0.83886283  0.41599328  0.10313936    -0.17900
C747        C  0.86961775  0.41399840  0.08982713     0.10400
C748        C  0.89981828  0.41799099  0.10463603    -0.06700
C749        C  0.89788427  0.42528656  0.13237974    -0.17900
C750        C  0.86705530  0.42773758  0.14557100     0.10400
S751        S  0.86814882  0.40554575  0.05411686    -0.32900
S752        S  0.86768634  0.44011649  0.18063905    -0.32900
H753        H  0.83924300  0.46194650  0.17864954     0.28500
H754        H  0.88487659  0.37312905  0.05675156     0.28400
H755        H  0.81609665  0.41161274  0.09167332     0.19000
H756        H  0.92058321  0.42930143  0.14400145     0.19000
C757        C  0.75403055  0.29806190  0.17922744    -0.06800
C758        C  0.77540215  0.27997640  0.16164685    -0.17900
C759        C  0.77760356  0.24346529  0.16210838     0.10400
C760        C  0.75689684  0.22416565  0.17977974    -0.06700
C761        C  0.73741343  0.24216576  0.19878459    -0.17900
C762        C  0.73560026  0.27887185  0.19861732     0.10400
S763        S  0.80779723  0.22320247  0.14000633    -0.32900
S764        S  0.70724703  0.29921025  0.22207541    -0.32900
H765        H  0.69228375  0.32126638  0.20260004     0.28500
H766        H  0.81608105  0.19576974  0.15797004     0.28400
H767        H  0.79062488  0.29444609  0.14737255     0.19000
H768        H  0.72180374  0.22757124  0.21269502     0.19000
C769        C  0.00760348  0.98378321  0.47816453    -0.06800
C770        C  0.99041173  0.01489652  0.47162456    -0.17900
C771        C  0.98625463  0.04166769  0.49050384     0.10400
C772        C  0.00024941  0.03792986  0.01658159    -0.06700
C773        C  0.51781981  0.00702562  0.02309874    -0.17900
C774        C  0.52212031  0.98026436  0.50412601     0.10400
S775        S  0.96106914  0.07888944  0.48049368    -0.32900
S776        S  0.54784748  0.94334418  0.01388038    -0.32900
H777        H  0.56406531  0.94070431  0.48878735     0.28500
H778        H  0.94363436  0.08092933  0.00509622     0.28400
H779        H  0.97893155  0.01791272  0.45188306     0.19000
H780        H  0.52918216  0.00413203  0.04289613     0.19000
C781        C  0.49703915  0.48332010  0.01389351    -0.06800
C782        C  0.98498348  0.47617877  0.48783101    -0.17900
C783        C  0.98336080  0.50238383  0.46801504     0.10400
C784        C  0.49496605  0.53649963  0.47400959    -0.06700
C785        C  0.50671257  0.54371535  0.00008782    -0.17900
C786        C  0.50826512  0.51758337  0.01990729     0.10400
S787        S  0.96455276  0.49097135  0.43609717    -0.32900
S788        S  0.52651645  0.52946437  0.05188912    -0.32900
H789        H  0.54608979  0.49879203  0.05412181     0.28500
H790        H  0.94666205  0.52267917  0.43327911     0.28400
H791        H  0.97573409  0.45023125  0.48307029     0.19000
H792        H  0.51592640  0.56968053  0.00484162     0.19000
C793        C  0.00475481  0.72294734  0.42378286    -0.06800
C794        C  0.98770763  0.74093109  0.44428780    -0.17900
C795        C  0.98705926  0.77775456  0.44498153     0.10400
C796        C  0.00497503  0.79716155  0.42537193    -0.06700
C797        C  0.52258667  0.77895413  0.40532298    -0.17900
C798        C  0.52290481  0.74239220  0.40441482     0.10400
S799        S  0.96085488  0.79816297  0.46996737    -0.32900
S800        S  0.54795952  0.72226681  0.37844651    -0.32900
H801        H  0.56017607  0.69501621  0.39507010     0.28500
H802        H  0.94652632  0.82240611  0.45174292     0.28400
H803        H  0.97340080  0.72627339  0.45904157     0.19000
H804        H  0.53673231  0.79333319  0.39030362     0.19000
C805        C  0.74671744  0.53867875  0.26298978    -0.06800
C806        C  0.75991755  0.50555043  0.26958938    -0.17900
C807        C  0.76064990  0.47836278  0.25078515     0.10400
C808        C  0.74705961  0.48382644  0.22469019    -0.06700
C809        C  0.73414405  0.51708012  0.21796904    -0.17900
C810        C  0.73352583  0.54435100  0.23680149     0.10400
S811        S  0.78072833  0.43803872  0.26114177    -0.32900
S812        S  0.71403542  0.58498650  0.22649347    -0.32900
H813        H  0.69614106  0.58933875  0.25068340     0.28500
H814        H  0.79912874  0.43442548  0.23711709     0.28400
H815        H  0.77059381  0.50097727  0.28944809     0.19000
H816        H  0.72352665  0.52163912  0.19809303     0.19000
C817        C  0.59329450  0.60056630  0.38339891    -0.06800
C818        C  0.59512080  0.60026773  0.35508770    -0.17900
C819        C  0.62598015  0.60027915  0.34169026     0.11200
C820        C  0.65595707  0.60075086  0.35693280    -0.06700
C821        C  0.65420812  0.59894454  0.38520669    -0.17900
C822        C  0.62330644  0.59873288  0.39863088     0.10400
S823        S  0.62643785  0.59918933  0.30519590    -0.32900
S824        S  0.62300695  0.59601581  0.43507176    -0.32900
H825        H  0.65706528  0.58734861  0.43843810     0.28500
H826        H  0.59174746  0.59504759  0.30131417     0.28400
H827        H  0.57222277  0.60103542  0.34335140     0.19000
H828        H  0.67717519  0.59886500  0.39687090     0.19000
C829        C  0.84310186  0.59916330  0.35611826    -0.06800
C830        C  0.87067952  0.60990691  0.34064486    -0.17900
C831        C  0.90299151  0.61062656  0.35150630     0.10400
C832        C  0.90809195  0.60140540  0.37884998    -0.06700
C833        C  0.88081182  0.58953894  0.39411620    -0.17900
C834        C  0.84866269  0.58743018  0.38291225     0.10400
S835        S  0.93608011  0.62631968  0.33005926    -0.32900
S836        S  0.81627468  0.56885758  0.40373410    -0.32900
H837        H  0.80232417  0.54877689  0.38276454     0.28500
H838        H  0.95374692  0.59432936  0.33126567     0.28400
H839        H  0.86701871  0.61876637  0.32002044     0.19000
H840        H  0.88463041  0.58149533  0.41492338     0.19000
C841        C  0.75251092  0.98277059  0.26539392    -0.06800
C842        C  0.75162579  0.01770501  0.27435868    -0.17900
C843        C  0.74989638  0.04592934  0.25628724     0.10400
C844        C  0.74750245  0.03949905  0.22823287    -0.06700
C845        C  0.74788618  0.00458658  0.21926637    -0.17900
C846        C  0.75112998  0.97641500  0.23726988     0.10400
S847        S  0.75113599  0.08924047  0.27060152    -0.32900
S848        S  0.75419057  0.93336962  0.22268851    -0.32900
H849        H  0.78449608  0.92549136  0.23605648     0.28500
H850        H  0.78083315  0.09815852  0.25697592     0.28400
H851        H  0.75285500  0.02330381  0.29576513     0.19000
H852        H  0.74659951  0.99903673  0.19785276     0.19000
C853        C  0.85153258  0.91397830  0.35765522    -0.06800
C854        C  0.85361669  0.91821247  0.38578749    -0.17900
C855        C  0.88447649  0.92031816  0.39910541     0.10400
C856        C  0.91449893  0.91725731  0.38424843    -0.06700
C857        C  0.91259709  0.91388637  0.35609095    -0.17900
C858        C  0.88170003  0.91187402  0.34269829     0.10400
S859        S  0.88361383  0.92830368  0.43492971    -0.32900
S860        S  0.88294406  0.90565156  0.30671049    -0.32900
H861        H  0.86375385  0.87476498  0.30769259     0.28500
H862        H  0.91055567  0.95203513  0.43453898     0.28400
H863        H  0.83095289  0.92034416  0.39765037     0.19000
H864        H  0.93540978  0.91137440  0.34444690     0.19000
C865        C  0.66491390  0.92027440  0.36078025    -0.06800
C866        C  0.66318137  0.91779551  0.38898368    -0.17900
C867        C  0.63229057  0.91644740  0.40227290     0.10400
C868        C  0.60210784  0.91762200  0.38709348    -0.06700
C869        C  0.60409404  0.92202936  0.35895803    -0.17900
C870        C  0.63495620  0.92402331  0.34579625     0.10400
S871        S  0.63337218  0.91364839  0.43853558    -0.32900
S872        S  0.63438859  0.93279142  0.31000041    -0.32900
H873        H  0.66309222  0.95415809  0.31030692     0.28500
H874        H  0.61947368  0.87977277  0.43889591     0.28400
H875        H  0.68604591  0.91555399  0.40073678     0.19000
H876        H  0.58140112  0.92403101  0.34698113     0.19000
C877        C  0.75586244  0.79659219  0.31737102    -0.06800
C878        C  0.77417074  0.77763682  0.33680792    -0.17900
C879        C  0.77472696  0.74102434  0.33691717     0.10400
C880        C  0.75604531  0.72242907  0.31739794    -0.06700
C881        C  0.73829224  0.74126466  0.29753281    -0.17900
C882        C  0.73749797  0.77805776  0.29760808     0.10400
S883        S  0.80061298  0.71974299  0.36209496    -0.32900
S884        S  0.71047505  0.79957648  0.27344623    -0.32900
H885        H  0.69727522  0.82363616  0.29211202     0.28500
H886        H  0.81210198  0.69306577  0.34485207     0.28400
H887        H  0.78861142  0.79148921  0.35192884     0.19000
H888        H  0.72353516  0.72725302  0.28270785     0.19000
In889      In  0.75658951  0.90479655  0.82407261     1.36900
C890        C  0.75626811  0.83531866  0.81904513     0.76900
O891        O  0.81241661  0.90919000  0.82020227    -0.61500
O892        O  0.79123255  0.91221047  0.85915929    -0.52400
C893        C  0.75433069  0.95442586  0.78609036     0.69600
O894        O  0.75429828  0.92210155  0.78070916    -0.47300
C895        C  0.69775764  0.91582790  0.84755309     0.74300
O896        O  0.75358091  0.85557922  0.79892454    -0.59200
O897        O  0.72504862  0.92488496  0.85834089    -0.49200
O898        O  0.75969092  0.85077491  0.84125903    -0.55600
C899        C  0.81762536  0.91187873  0.84520895     0.84500
O900        O  0.75576721  0.96099487  0.81100934    -0.57500
O901        O  0.70082791  0.90137299  0.82489455    -0.60800
In902      In  0.74923363  0.61442803  0.82232994     1.36900
C903        C  0.75288705  0.68386457  0.81860546     0.76900
O904        O  0.69345805  0.61956045  0.82174284    -0.61500
O905        O  0.71601546  0.59450456  0.85549278    -0.52400
C906        C  0.74754216  0.56620224  0.78393473     0.69600
O907        O  0.74896697  0.59862251  0.77874101    -0.47300
C908        C  0.80924308  0.60315462  0.84413439     0.74300
O909        O  0.75012608  0.66475363  0.79797294    -0.59200
O910        O  0.78265044  0.60324708  0.85778957    -0.49200
O911        O  0.75258682  0.66739562  0.84065794    -0.55600
C912        C  0.68926898  0.60466777  0.84422658     0.84500
O913        O  0.74737636  0.55876542  0.80876217    -0.57500
O914        O  0.80481591  0.60838552  0.81923329    -0.60800
In915      In  0.49933545  0.61498875  0.91669765     1.36900
C916        C  0.00170043  0.68441298  0.92184073     0.76900
O917        O  0.55534313  0.61443804  0.91983791    -0.61500
O918        O  0.53304184  0.59910621  0.88291794    -0.52400
C919        C  0.49662221  0.56465250  0.95353853     0.69600
O920        O  0.99502728  0.59677291  0.95954866    -0.47300
C921        C  0.94076727  0.60566319  0.89243250     0.74300
O922        O  0.50013256  0.66428582  0.94208641    -0.59200
O923        O  0.96837648  0.60208909  0.88053794    -0.49200
O924        O  0.00062576  0.66895742  0.89948158    -0.55600
C925        C  0.55977948  0.60435774  0.89591206     0.84500
O926        O  0.50041526  0.55861247  0.92876292    -0.57500
O927        O  0.94319648  0.61358798  0.91703184    -0.60800
In928      In  0.00759405  0.90564711  0.92037350     1.36900
C929        C  0.00595363  0.83602471  0.92442466     0.76900
O930        O  0.95168541  0.90321573  0.92113624    -0.61500
O931        O  0.97473996  0.92208119  0.88549022    -0.52400
C932        C  0.00830732  0.95552367  0.95775458     0.69600
O933        O  0.51038436  0.92330857  0.96359389    -0.47300
C934        C  0.56833820  0.91421128  0.89938461     0.74300
O935        O  0.00165903  0.85563312  0.94461379    -0.59200
O936        O  0.54169298  0.91975848  0.88617634    -0.49200
O937        O  0.51174629  0.85225995  0.90275832    -0.55600
C938        C  0.94778146  0.91459114  0.89742437     0.84500
O939        O  0.00570673  0.96189874  0.93284362    -0.57500
O940        O  0.56355385  0.90475413  0.92346458    -0.60800
In941      In  0.74557212  0.40520261  0.66744209     1.36900
C942        C  0.75100588  0.33641560  0.67567567     0.76900
O943        O  0.68954034  0.40032953  0.66795461    -0.61500
O944        O  0.71257228  0.41697051  0.63185357    -0.52400
C945        C  0.74558812  0.45567167  0.70424880     0.69600
O946        O  0.74590441  0.42350901  0.71020914    -0.47300
C947        C  0.80432043  0.41731634  0.64443221     0.74300
O948        O  0.74516861  0.35752228  0.69460670    -0.59200
O949        O  0.77692085  0.41979179  0.63177613    -0.49200
O950        O  0.75426210  0.35068413  0.65288774    -0.55600
C951        C  0.68569102  0.40929428  0.64362435     0.84500
O952        O  0.74390181  0.46196256  0.67927725    -0.57500
O953        O  0.80138663  0.40910975  0.66897974    -0.60800
In954      In  0.74510623  0.11754510  0.66993052     1.36900
C955        C  0.75247265  0.18601008  0.67674558     0.76900
O956        O  0.80067523  0.11099668  0.67181349    -0.61500
O957        O  0.77669531  0.10355908  0.63413314    -0.52400
C958        C  0.74541642  0.06782105  0.70762650     0.69600
O959        O  0.74851664  0.09993336  0.71292321    -0.47300
C960        C  0.68457935  0.11298914  0.64755256     0.74300
O961        O  0.74414501  0.16597530  0.69588671    -0.59200
O962        O  0.71097348  0.10386336  0.63553652    -0.49200
O963        O  0.75581374  0.17099569  0.65435328    -0.55600
C964        C  0.80396009  0.10421016  0.64707556     0.84500
O965        O  0.74108799  0.06148074  0.68289434    -0.57500
O966        O  0.68927424  0.12457378  0.67102722    -0.60800
In967      In  0.99340987  0.11583418  0.57393837     1.36900
C968        C  0.98677497  0.18466789  0.56849888     0.76900
O969        O  0.93720639  0.11225156  0.57295379    -0.61500
O970        O  0.96254363  0.10040476  0.60951181    -0.52400
C971        C  0.99780079  0.06585833  0.53706077     0.69600
O972        O  0.49702958  0.09807482  0.53111810    -0.47300
C973        C  0.55440857  0.11269419  0.59549938     0.74300
O974        O  0.98553393  0.16437779  0.54845299    -0.59200
O975        O  0.52843002  0.10351521  0.60812245    -0.49200
O976        O  0.49206058  0.16963494  0.59075899    -0.55600
C977        C  0.93482970  0.10414673  0.59757522     0.84500
O978        O  0.99661806  0.05930365  0.56200573    -0.57500
O979        O  0.54888960  0.12277596  0.57165244    -0.60800
In980      In  0.49369505  0.40429706  0.57111940     1.36900
C981        C  0.98884657  0.33549541  0.56611231     0.76900
O982        O  0.54937748  0.39621916  0.57064923    -0.61500
O983        O  0.52750880  0.41825541  0.60559753    -0.52400
C984        C  0.49617689  0.45498166  0.53434756     0.69600
O985        O  0.99672243  0.42288699  0.52817558    -0.47300
C986        C  0.93349739  0.41437905  0.59232015     0.74300
O987        O  0.49130415  0.35549839  0.54583163    -0.59200
O988        O  0.96024173  0.41853437  0.60563120    -0.49200
O989        O  0.98853681  0.35104917  0.58847564    -0.55600
C990        C  0.55379913  0.40733149  0.59431596     0.84500
O991        O  0.49418631  0.46080608  0.55930220    -0.57500
O992        O  0.93805063  0.40617331  0.56801369    -0.60800
C993        C  0.98323172  0.22304656  0.56633875    -0.06800
C994        C  0.49649996  0.24031341  0.54372496    -0.17900
C995        C  0.49863438  0.27696719  0.54278940     0.10400
C996        C  0.98628084  0.29693258  0.56461686    -0.06700
C997        C  0.97156986  0.27952748  0.58657873    -0.17900
C998        C  0.96965247  0.24306787  0.58760188     0.10400
S999        S  0.51974637  0.29621432  0.51430919    -0.32900
S1000       S  0.94903998  0.22388901  0.61645552    -0.32900
H1001       H  0.93417732  0.19630846  0.60196499     0.28500
H1002       H  0.54033700  0.31782835  0.53021595     0.28400
H1003       H  0.50712372  0.22511661  0.52739278     0.19000
H1004       H  0.96133645  0.29446926  0.60321313     0.19000
C1005       C  0.65115458  0.11112775  0.63468510    -0.06800
C1006       C  0.64910605  0.11508094  0.60656903    -0.17900
C1007       C  0.61819169  0.11614735  0.59320928     0.10400
C1008       C  0.58819655  0.11220902  0.60811569    -0.06700
C1009       C  0.59039282  0.10752422  0.63622554    -0.17900
C1010       C  0.62131340  0.10683265  0.64959289     0.10400
S1011       S  0.61910924  0.12248175  0.55719782    -0.32900
S1012       S  0.62082522  0.09915998  0.68551015    -0.32900
H1013       H  0.64850694  0.07618637  0.68541022     0.28500
H1014       H  0.60201891  0.15479222  0.55855145     0.28400
H1015       H  0.67180236  0.11845063  0.59490668     0.19000
H1016       H  0.56779496  0.10426405  0.64802042     0.19000
C1017       C  0.83738808  0.09948054  0.63451987    -0.06800
C1018       C  0.86571432  0.10821353  0.64997369    -0.17900
C1019       C  0.89779924  0.10843394  0.63883732     0.10400
C1020       C  0.90212531  0.10038318  0.61125356    -0.06700
C1021       C  0.87402109  0.09071958  0.59590256    -0.17900
C1022       C  0.84197447  0.08935006  0.60730821     0.10400
S1023       S  0.93162800  0.12232651  0.66036687    -0.32900
S1024       S  0.80836631  0.07418633  0.58604306    -0.32900
H1025       H  0.79496793  0.05187137  0.60594613     0.28500
H1026       H  0.94846857  0.08993612  0.65849501     0.28400
H1027       H  0.86287303  0.11598354  0.67085832     0.19000
H1028       H  0.87706378  0.08394133  0.57482284     0.19000
C1029       C  0.65232608  0.41015315  0.63032963    -0.06800
C1030       C  0.62376001  0.40911215  0.64678543    -0.17900
C1031       C  0.59149647  0.40764195  0.63577327     0.10400
C1032       C  0.58721089  0.40759924  0.60742319    -0.06700
C1033       C  0.61573651  0.40819332  0.59093381    -0.17900
C1034       C  0.64801226  0.41002626  0.60194197     0.10400
S1035       S  0.55717780  0.40414061  0.65915238    -0.32900
S1036       S  0.68238419  0.41155300  0.57853789    -0.32900
H1037       H  0.69345212  0.44436412  0.58787874     0.28500
H1038       H  0.54118173  0.37707450  0.64486697     0.28400
H1039       H  0.62652035  0.40888162  0.66855371     0.19000
H1040       H  0.61289283  0.40804160  0.56916899     0.19000
C1041       C  0.83713344  0.42152216  0.63106438    -0.06800
C1042       C  0.83885980  0.41599419  0.60313845    -0.17900
C1043       C  0.86961494  0.41399715  0.58982654     0.10400
C1044       C  0.89981561  0.41798448  0.60463618    -0.06700
C1045       C  0.89788168  0.42527446  0.63238078    -0.17900
C1046       C  0.86705274  0.42772784  0.64557168     0.10400
S1047       S  0.86814604  0.40554810  0.55411576    -0.32900
S1048       S  0.86768466  0.44010202  0.68064075    -0.32900
H1049       H  0.83924585  0.46193862  0.67865176     0.28500
H1050       H  0.88487763  0.37313320  0.55674780     0.28400
H1051       H  0.81609332  0.41161829  0.59167167     0.19000
H1052       H  0.92058076  0.42928446  0.64400337     0.19000
C1053       C  0.75402626  0.29806343  0.67922654    -0.06800
C1054       C  0.77540060  0.27997838  0.66164775    -0.17900
C1055       C  0.77760126  0.24346715  0.66210830     0.10400
C1056       C  0.75689188  0.22416708  0.67977732    -0.06700
C1057       C  0.73740550  0.24216658  0.69878050    -0.17900
C1058       C  0.73559265  0.27887267  0.69861396     0.10400
S1059       S  0.80779677  0.22320460  0.64000767    -0.32900
S1060       S  0.70723550  0.29921005  0.72206948    -0.32900
H1061       H  0.69227539  0.32126692  0.70259304     0.28500
H1062       H  0.81607795  0.19577045  0.65797087     0.28400
H1063       H  0.79062565  0.29444850  0.64737531     0.19000
H1064       H  0.72179349  0.22757166  0.71268889     0.19000
C1065       C  0.00759948  0.98378829  0.97816460    -0.06800
C1066       C  0.99040344  0.01489975  0.97162660    -0.17900
C1067       C  0.98624704  0.04167066  0.99050620     0.10400
C1068       C  0.00025252  0.03792542  0.51658073    -0.06700
C1069       C  0.51781559  0.00703059  0.52309919    -0.17900
C1070       C  0.52212205  0.98025904  0.00412542     0.10400
S1071       S  0.96105712  0.07889037  0.98049859    -0.32900
S1072       S  0.54784892  0.94335204  0.51388128    -0.32900
H1073       H  0.56406330  0.94069488  0.98878632     0.28500
H1074       H  0.94364203  0.08092866  0.50508929     0.28400
H1075       H  0.97891962  0.01791480  0.95188629     0.19000
H1076       H  0.52917793  0.00413801  0.54289661     0.19000
C1077       C  0.49703461  0.48332235  0.51389031    -0.06800
C1078       C  0.98497853  0.47618318  0.98783426    -0.17900
C1079       C  0.98335573  0.50238835  0.96801852     0.10400
C1080       C  0.49496601  0.53649936  0.97401433    -0.06700
C1081       C  0.50670921  0.54371692  0.50008387    -0.17900
C1082       C  0.50825889  0.51758608  0.51990425     0.10400
S1083       S  0.96454753  0.49097563  0.93610086    -0.32900
S1084       S  0.52650372  0.52946959  0.55188787    -0.32900
H1085       H  0.54607813  0.49879839  0.55412384     0.28500
H1086       H  0.94665697  0.52268354  0.93328289     0.28400
H1087       H  0.97572945  0.45023553  0.98307332     0.19000
H1088       H  0.51592175  0.56968235  0.50483798     0.19000
C1089       C  0.00475568  0.72295118  0.92378152    -0.06800
C1090       C  0.98770794  0.74093541  0.94428584    -0.17900
C1091       C  0.98705817  0.77775886  0.94497854     0.10400
C1092       C  0.00497381  0.79716586  0.92536881    -0.06700
C1093       C  0.52258121  0.77895181  0.90532354    -0.17900
C1094       C  0.52290042  0.74239003  0.90441557     0.10400
S1095       S  0.96085186  0.79816716  0.96996306    -0.32900
S1096       S  0.54795605  0.72226542  0.87844745    -0.32900
H1097       H  0.56017415  0.69501600  0.89507145     0.28500
H1098       H  0.94652218  0.82240776  0.95173717     0.28400
H1099       H  0.97340136  0.72627782  0.95904001     0.19000
H1100       H  0.53672684  0.79333124  0.89030421     0.19000
C1101       C  0.74671658  0.53868193  0.76298887    -0.06800
C1102       C  0.75991404  0.50555271  0.76958915    -0.17900
C1103       C  0.76064470  0.47836439  0.75078552     0.10400
C1104       C  0.74705648  0.48382868  0.72468992    -0.06700
C1105       C  0.73414336  0.51708324  0.71796810    -0.17900
C1106       C  0.73352590  0.54435445  0.73680033     0.10400
S1107       S  0.78071738  0.43803815  0.76114427    -0.32900
S1108       S  0.71403692  0.58499050  0.72649193    -0.32900
H1109       H  0.69614127  0.58934258  0.75068127     0.28500
H1110       H  0.79912139  0.43442311  0.73712156     0.28400
H1111       H  0.77058900  0.50097897  0.78944826     0.19000
H1112       H  0.72352697  0.52164269  0.69809178     0.19000
C1113       C  0.59329410  0.60056802  0.88340005    -0.06800
C1114       C  0.59511991  0.60027272  0.85508874    -0.17900
C1115       C  0.62597898  0.60028375  0.84169068     0.11200
C1116       C  0.65595636  0.60075065  0.85693288    -0.06700
C1117       C  0.65420776  0.59894119  0.88520670    -0.17900
C1118       C  0.62330635  0.59873103  0.89863140     0.10400
S1119       S  0.62643658  0.59919552  0.80519611    -0.32900
S1120       S  0.62300749  0.59601129  0.93507214    -0.32900
H1121       H  0.65706593  0.58734426  0.93843793     0.28500
H1122       H  0.59173913  0.59512248  0.80131105     0.28400
H1123       H  0.57222132  0.60104124  0.84335304     0.19000
H1124       H  0.67717517  0.59885841  0.89687058     0.19000
C1125       C  0.84309920  0.59916356  0.85612231    -0.06800
C1126       C  0.87067879  0.60989597  0.84064664    -0.17900
C1127       C  0.90299038  0.61061658  0.85150879     0.10400
C1128       C  0.90808851  0.60140950  0.87885554    -0.06700
C1129       C  0.88080606  0.58955490  0.89412464    -0.17900
C1130       C  0.84865750  0.58744300  0.88291982     0.10400
S1131       S  0.93608248  0.62629014  0.83005691    -0.32900
S1132       S  0.81626719  0.56888040  0.90374461    -0.32900
H1133       H  0.80231838  0.54879068  0.88277943     0.28500
H1134       H  0.95374053  0.59429499  0.83127225     0.28400
H1135       H  0.86702010  0.61874490  0.82001932     0.19000
H1136       H  0.88462261  0.58152138  0.91493420     0.19000
C1137       C  0.75251081  0.98277195  0.76539021    -0.06800
C1138       C  0.75163235  0.01770667  0.77435454    -0.17900
C1139       C  0.74990395  0.04593082  0.75628290     0.10400
C1140       C  0.74750338  0.03950032  0.72822885    -0.06700
C1141       C  0.74788046  0.00458758  0.71926285    -0.17900
C1142       C  0.75112400  0.97641593  0.73726636     0.10400
S1143       S  0.75115524  0.08924187  0.77059659    -0.32900
S1144       S  0.75417699  0.93336991  0.72268507    -0.32900
H1145       H  0.78448301  0.92548719  0.73605074     0.28500
H1146       H  0.78084832  0.09815539  0.75696347     0.28400
H1147       H  0.75286649  0.02330581  0.79576078     0.19000
H1148       H  0.74658864  0.99903740  0.69784948     0.19000
C1149       C  0.85153201  0.91397967  0.85764984    -0.06800
C1150       C  0.85361705  0.91821991  0.88578147    -0.17900
C1151       C  0.88447726  0.92032556  0.89909866     0.10400
C1152       C  0.91449915  0.91725749  0.88424204    -0.06700
C1153       C  0.91259677  0.91387917  0.85608510    -0.17900
C1154       C  0.88169910  0.91186765  0.84269293     0.10400
S1155       S  0.88361635  0.92832206  0.93492147    -0.32900
S1156       S  0.88294164  0.90563582  0.80670603    -0.32900
H1157       H  0.86374405  0.87475450  0.80769241     0.28500
H1158       H  0.91056057  0.95205047  0.93452602     0.28400
H1159       H  0.83095368  0.92035739  0.89764429     0.19000
H1160       H  0.93540912  0.91136137  0.84444146     0.19000
C1161       C  0.66491148  0.92027224  0.86077872    -0.06800
C1162       C  0.66317891  0.91777450  0.88898117    -0.17900
C1163       C  0.63228825  0.91642017  0.90227014     0.10400
C1164       C  0.60210520  0.91760849  0.88709152    -0.06700
C1165       C  0.60409157  0.92203216  0.85895744    -0.17900
C1166       C  0.63495387  0.92403225  0.84579621     0.10400
S1167       S  0.63337113  0.91359386  0.93853168    -0.32900
S1168       S  0.63438702  0.93282434  0.81000378    -0.32900
H1169       H  0.66309232  0.95418836  0.81031899     0.28500
H1170       H  0.61946074  0.87972341  0.93887783     0.28400
H1171       H  0.68604339  0.91552277  0.90073329     0.19000
H1172       H  0.58139867  0.92404382  0.84698143     0.19000
C1173       C  0.75586489  0.79659457  0.81737061    -0.06800
C1174       C  0.77417219  0.77764031  0.83680883    -0.17900
C1175       C  0.77472993  0.74102772  0.83691839     0.10400
C1176       C  0.75605170  0.72243132  0.81739751    -0.06700
C1177       C  0.73830034  0.74126611  0.79753095    -0.17900
C1178       C  0.73750345  0.77805907  0.79760660     0.10400
S1179       S  0.80061196  0.71974791  0.86209961    -0.32900
S1180       S  0.71047934  0.79957620  0.77344485    -0.32900
H1181       H  0.69727752  0.82363432  0.79211095     0.28500
H1182       H  0.81210452  0.69307033  0.84485859     0.28400
H1183       H  0.78861022  0.79149364  0.85193082     0.19000
H1184       H  0.72354534  0.72725378  0.78270496     0.19000
loop_ 
_geom_bond_atom_site_label_1 
_geom_bond_atom_site_label_2 
_geom_bond_distance 
_geom_bond_site_symmetry_2 
_ccdc_geom_bond_type 
In1           O3   2.244       .  S
In1           O4   2.237       .  S
In1          O12   2.236       .  S
In1           O6   2.246       .  S
In1           O8   2.260       .  S
In1           O9   2.253       .  S
In1          O10   2.228       .  S
In1          O13   2.230       .  S
C2            O8   1.263       .  A
C2           O10   1.258       .  A
C2          C285   1.479       .  S
O3           C11   1.260       .  A
O4           C11   1.262       .  A
C5           O12   1.262       .  A
C5            O6   1.262       .  A
C5          C249   1.488       .  S
C7            O9   1.261       .  A
C7           O13   1.259       .  A
C7          C273   1.477       .  S
C11         C261   1.488       .  S
In14         O16   2.234       .  S
In14         O17   2.246       .  S
In14         O25   2.230       .  S
In14         O19   2.245       .  S
In14         O21   2.263       .  S
In14         O22   2.241       .  S
In14         O23   2.222       .  S
In14         O26   2.235       .  S
C15          O21   1.263       .  A
C15          O23   1.258       .  A
C15         C288   1.477       .  S
O16          C24   1.260       .  A
O17          C24   1.262       .  A
C18          O25   1.261       .  A
C18          O19   1.263       .  A
C18         C213   1.479       .  S
C20          O22   1.261       .  A
C20          O26   1.261       .  A
C20         C237   1.481       .  S
C24         C228   1.481       .  S
In27         O29   2.240   1_655  S
In27         O30   2.235   1_655  S
In27         O38   2.229   1_655  S
In27         O34   2.267   1_655  S
In27        O624   2.239       .  S
In27        O627   2.231       .  S
In27        O628   2.225   1_655  S
In27        O631   2.241       .  S
C28          O36   1.258       .  A
C28         O626   1.262       .  A
C28         C201   1.478       .  S
O29          C37   1.261       .  A
O30          C37   1.261       .  A
C31          O38   1.260   1_655  A
C31         O624   1.263       .  A
C31         C192   1.476       .  S
O32        In619   2.239       .  S
O32         C623   1.263       .  A
C33          O35   1.259       .  A
C33          O39   1.261       .  A
C33         C240   1.475       .  S
O34         C620   1.262       .  A
O35        In619   2.231       .  S
O36        In619   2.225       .  S
C37         C225   1.483       .  S
O39        In619   2.241       .  S
In40         O42   2.234       .  S
In40         O43   2.251       .  S
In40         O51   2.235       .  S
In40         O47   2.263       .  S
In40        O637   2.250       .  S
In40        O640   2.242       .  S
In40        O641   2.224       .  S
In40        O644   2.238       .  S
C41          O47   1.263       .  A
C41         O641   1.259       .  A
C41         C204   1.483       .  S
O42          C50   1.260       .  A
O43          C50   1.262       .  A
C44          O51   1.261       .  A
C44         O637   1.263       .  A
C44         C177   1.481       .  S
O45        In632   2.250       .  S
O45         C636   1.263       .  A
C46          O48   1.263       .  A
C46          O52   1.260       .  A
C46         C276   1.487       .  S
O48        In632   2.242       .  S
O49        In632   2.224       .  S
O49         C633   1.259       .  A
C50         C264   1.481       .  S
O52        In632   2.238       .  S
In53         O55   2.245       .  S
In53         O56   2.240       .  S
In53         O64   2.245       .  S
In53         O58   2.234       .  S
In53         O60   2.257       .  S
In53         O61   2.238       .  S
In53         O62   2.229       .  S
In53         O65   2.234       .  S
C54          O60   1.260       .  A
C54          O62   1.259       .  A
C54         C165   1.476       .  S
O55          C63   1.260       .  A
O56          C63   1.258       .  A
C57          O64   1.261       .  A
C57          O58   1.260       .  A
C57         C216   1.480       .  S
C59          O61   1.262       .  A
C59          O65   1.261       .  A
C59         C153   1.478       .  S
C63         C141   1.484       .  S
In66         O68   2.232       .  S
In66         O69   2.245       .  S
In66         O77   2.236       .  S
In66         O71   2.234       .  S
In66         O73   2.255       .  S
In66         O74   2.242       .  S
In66         O75   2.219       .  S
In66         O78   2.244       .  S
C67          O73   1.261       .  A
C67          O75   1.258       .  A
C67         C168   1.474       .  S
O68          C76   1.261       .  A
O69          C76   1.261       .  A
C70          O77   1.262       .  A
C70          O71   1.260       .  A
C70         C252   1.485       .  S
C72          O74   1.260       .  A
C72          O78   1.260       .  A
C72         C117   1.478       .  S
C76         C129   1.485       .  S
In79         O81   2.248       .  S
In79         O82   2.232       .  S
In79         O90   2.241       .  S
In79         O86   2.256       .  S
In79        O676   2.235       .  S
In79        O679   2.240       .  S
In79        O680   2.218       .  S
In79        O683   2.234       .  S
C80          O86   1.263       .  A
C80         O680   1.258       .  A
C80         C105   1.473       .  S
O81          C89   1.261       .  A
O82          C89   1.260       .  A
C83          O90   1.261       .  A
C83         O676   1.262       .  A
C83         C180   1.478       .  S
O84        In671   2.235       .  S
O84         C675   1.262       .  A
C85          O87   1.262       .  A
C85          O91   1.259       .  A
C85         C120   1.484       .  S
O87        In671   2.240   1_455  S
O88        In671   2.218       .  S
O88         C672   1.258       .  A
C89         C132   1.480       .  S
O91        In671   2.234   1_455  S
In92         O94   2.243   1_655  S
In92         O95   2.241   1_655  S
In92        O103   2.230       .  S
In92         O99   2.250       .  S
In92        O689   2.244       .  S
In92        O692   2.241       .  S
In92        O693   2.212       .  S
In92        O696   2.226       .  S
C93         O101   1.259       .  A
C93         O691   1.263       .  A
C93         C108   1.476       .  S
O94         C102   1.261       .  A
O95         C102   1.261       .  A
C96         O103   1.260       .  A
C96         O689   1.263       .  A
C96         C189   1.479       .  S
O97        In684   2.244       .  S
O97         C688   1.263       .  A
C98         O100   1.264       .  A
C98         O104   1.259       .  A
C98         C156   1.484       .  S
O99         C685   1.263       .  A
O100       In684   2.241       .  S
O101       In684   2.212       .  S
C102        C144   1.481       .  S
O104       In684   2.226       .  S
C105        C110   1.412       .  A
C105        C698   1.403       .  A
C106        C107   1.401       .  A
C106        C697   1.403       .  A
C106        H115   1.084   1_655  S
C107        C700   1.415       .  A
C107        S111   1.801   1_655  S
C108        C109   1.404       .  A
C108        C699   1.415       .  A
C109        C110   1.393       .  A
C109        H116   1.084       .  S
C110        S112   1.805       .  S
S111        H114   1.408       .  S
S112        H113   1.408       .  S
C117        C118   1.403       .  A
C117        C122   1.413       .  A
C118        C119   1.398       .  A
C118        H127   1.084       .  S
C119        C120   1.417       .  A
C119        S123   1.800       .  S
C120        C121   1.406       .  A
C121        C122   1.399       .  A
C121        H128   1.084       .  S
C122        S124   1.803       .  S
S123        H126   1.408       .  S
S124        H125   1.407       .  S
C129        C130   1.405       .  A
C129        C134   1.417       .  A
C130        C131   1.396       .  A
C130        H139   1.084       .  S
C131        C132   1.413       .  A
C131        S135   1.800       .  S
C132        C133   1.404       .  A
C133        C134   1.401       .  A
C133        H140   1.084       .  S
C134        S136   1.801       .  S
S135        H138   1.407       .  S
S136        H137   1.408       .  S
C141        C142   1.405       .  A
C141        C146   1.417       .  A
C142        C143   1.398       .  A
C142        H151   1.084       .  S
C143        C144   1.415       .  A
C143        S147   1.802       .  S
C144        C145   1.404       .  A
C145        C146   1.399       .  A
C145        H152   1.084       .  S
C146        S148   1.800       .  S
S147        H150   1.408       .  S
S148        H149   1.408       .  S
C153        C154   1.403       .  A
C153        C158   1.413       .  A
C154        C155   1.397       .  A
C154        H163   1.084       .  S
C155        C156   1.418       .  A
C155        S159   1.801       .  S
C156        C157   1.406       .  A
C157        C158   1.398       .  A
C157        H164   1.083       .  S
C158        S160   1.803       .  S
S159        H162   1.408       .  S
S160        H161   1.408       .  S
C165        C166   1.403       .  A
C165        C170   1.415       .  A
C166        C167   1.395       .  A
C166        H175   1.084       .  S
C167        C168   1.412       .  A
C167        S171   1.805       .  S
C168        C169   1.403       .  A
C169        C170   1.401       .  A
C169        H176   1.084       .  S
C170        S172   1.801       .  S
S171        H174   1.408       .  S
S172        H173   1.407       .  S
C177        C178   1.404   1_565  A
C177        C774   1.415       .  A
C178        C179   1.397       .  A
C178        H187   1.084       .  S
C179        C476   1.412       .  A
C179        S183   1.803       .  S
C180        C475   1.412   1_554  A
C180        C773   1.405       .  A
C181        C772   1.405       .  A
C181        C478   1.401   1_545  A
C181        H188   1.084       .  S
C182        C769   1.415       .  A
C182        C477   1.401   1_565  A
C182        S480   1.802       .  S
S183        H482   1.408       .  S
S184        C478   1.802       .  S
S184        H481   1.408   1_554  S
H185        S480   1.408       .  S
H186        S479   1.408   1_554  S
C189        C194   1.415   1_655  A
C189       C1078   1.404   1_554  A
C190        C191   1.399       .  A
C190       C1077   1.404       .  A
C190        H199   1.084       .  S
C191        C784   1.414       .  A
C191        S195   1.804       .  S
C192        C783   1.414       .  A
C192        C489   1.402   1_655  A
C193        C194   1.397       .  A
C193        C488   1.402   1_454  A
C193        H200   1.084       .  S
C194        S196   1.802       .  S
S195        H198   1.408       .  S
S196        H197   1.408       .  S
C201        C202   1.405       .  A
C201        C798   1.413       .  A
C202        C203   1.405       .  A
C202        H211   1.084       .  S
C203        C204   1.416       .  A
C203        S207   1.801       .  S
C204        C797   1.403       .  A
C205        C206   1.395       .  A
C205        C796   1.403       .  A
C205        H212   1.084       .  S
C206        C793   1.413       .  A
C206        S208   1.805       .  S
S207        H210   1.408       .  S
S208        H209   1.408       .  S
C213        C214   1.404       .  A
C213        C218   1.414       .  A
C214        C215   1.397       .  A
C214        H223   1.084       .  S
C215        C216   1.415       .  A
C215        S219   1.803       .  S
C216        C217   1.405       .  A
C217        C218   1.400       .  A
C217        H224   1.084       .  S
C218        S220   1.802       .  S
S219        H222   1.408       .  S
S220        H221   1.408       .  S
C225        C226   1.405       .  A
C225        C230   1.415       .  A
C226        C227   1.401       .  A
C226        H235   1.082       .  S
C227        C228   1.413       .  A
C227        S231   1.809       .  S
C228        C229   1.404       .  A
C229        C230   1.403       .  A
C229        H236   1.082       .  S
C230        S232   1.808       .  S
S231        H234   1.407       .  S
S232        H233   1.407       .  S
C237        C238   1.405       .  A
C237        C242   1.416       .  A
C238        C239   1.396       .  A
C238        H247   1.084       .  S
C239        C240   1.412       .  A
C239        S243   1.800       .  S
C240        C241   1.403       .  A
C241        C242   1.399       .  A
C241        H248   1.084       .  S
C242        S244   1.802       .  S
S243        H246   1.407       .  S
S244        H245   1.408       .  S
C249        C250   1.406   1_565  A
C249        C254   1.416       .  A
C250        C251   1.398       .  A
C250        H259   1.084       .  S
C251        C252   1.416       .  A
C251        S255   1.801       .  S
C252        C253   1.405       .  A
C253        C254   1.399   1_545  A
C253        H260   1.084   1_545  S
C254        S256   1.800       .  S
S255        H258   1.408       .  S
S256        H257   1.408       .  S
C261        C262   1.406       .  A
C261        C266   1.418       .  A
C262        C263   1.398       .  A
C262        H271   1.083       .  S
C263        C264   1.413       .  A
C263        S267   1.803       .  S
C264        C265   1.404       .  A
C265        C266   1.401       .  A
C265        H272   1.084       .  S
C266        S268   1.801       .  S
S267        H270   1.408       .  S
S268        H269   1.408       .  S
C273        C274   1.402       .  A
C273        C278   1.412       .  A
C274        C275   1.401       .  A
C274        H283   1.084       .  S
C275        C276   1.418       .  A
C275        S279   1.800       .  S
C276        C277   1.406       .  A
C277        C278   1.398       .  A
C277        H284   1.083       .  S
C278        S280   1.804       .  S
S279        H282   1.407       .  S
S280        H281   1.408       .  S
C285        C286   1.403       .  A
C285        C290   1.414       .  A
C286        C287   1.396       .  A
C286        H295   1.084       .  S
C287        C288   1.414       .  A
C287        S291   1.805       .  S
C288        C289   1.404       .  A
C289        C290   1.403       .  A
C289        H296   1.084       .  S
C290        S292   1.801       .  S
S291        H294   1.408       .  S
S292        H293   1.408       .  S
In297       O299   2.244       .  S
In297       O300   2.237       .  S
In297       O308   2.236       .  S
In297       O302   2.246       .  S
In297       O304   2.260       .  S
In297       O305   2.253       .  S
In297       O306   2.228       .  S
In297       O309   2.230       .  S
C298        O304   1.263       .  A
C298        O306   1.258       .  A
C298        C581   1.479       .  S
O299        C307   1.260       .  A
O300        C307   1.262       .  A
C301        O308   1.262       .  A
C301        O302   1.262       .  A
C301        C545   1.488       .  S
C303        O305   1.261       .  A
C303        O309   1.259       .  A
C303        C569   1.477       .  S
C307        C557   1.488       .  S
In310       O312   2.234       .  S
In310       O313   2.246       .  S
In310       O321   2.230       .  S
In310       O315   2.245       .  S
In310       O317   2.263       .  S
In310       O318   2.241       .  S
In310       O319   2.222       .  S
In310       O322   2.235       .  S
C311        O317   1.263       .  A
C311        O319   1.258       .  A
C311        C584   1.477       .  S
O312        C320   1.260       .  A
O313        C320   1.262       .  A
C314        O321   1.261       .  A
C314        O315   1.263       .  A
C314        C509   1.479       .  S
C316        O318   1.261       .  A
C316        O322   1.261       .  A
C316        C533   1.481       .  S
C320        C524   1.481       .  S
In323       O325   2.240   1_655  S
In323       O326   2.235   1_655  S
In323       O334   2.229   1_655  S
In323       O920   2.239       .  S
In323       O330   2.267   1_655  S
In323       O923   2.231       .  S
In323       O924   2.225   1_655  S
In323       O927   2.241       .  S
C324        O922   1.262       .  A
C324        O332   1.258       .  A
C324        C497   1.478       .  S
O325        C333   1.261       .  A
O326        C333   1.261       .  A
C327        O334   1.260   1_655  A
C327        O920   1.263       .  A
C327        C488   1.476       .  S
O328       In915   2.239       .  S
O328        C919   1.263       .  A
C329        O331   1.259       .  A
C329        O335   1.261       .  A
C329        C536   1.475       .  S
O330        C916   1.262       .  A
O331       In915   2.231       .  S
O332       In915   2.225       .  S
C333        C521   1.483       .  S
O335       In915   2.241       .  S
In336       O338   2.234       .  S
In336       O339   2.251       .  S
In336       O347   2.235       .  S
In336       O933   2.250       .  S
In336       O343   2.263       .  S
In336       O936   2.242       .  S
In336       O937   2.224       .  S
In336       O940   2.238       .  S
C337        O343   1.263       .  A
C337        O937   1.259       .  A
C337        C500   1.483       .  S
O338        C346   1.260       .  A
O339        C346   1.262       .  A
C340        O347   1.261       .  A
C340        O933   1.263       .  A
C340        C473   1.481       .  S
O341       In928   2.251       .  S
O341        C932   1.263       .  A
C342        O344   1.263       .  A
C342        O348   1.260       .  A
C342        C572   1.487       .  S
O344       In928   2.242       .  S
O345       In928   2.224       .  S
O345        C929   1.259       .  A
C346        C560   1.481       .  S
O348       In928   2.238       .  S
In349       O351   2.245       .  S
In349       O352   2.240       .  S
In349       O360   2.245       .  S
In349       O354   2.234       .  S
In349       O356   2.257       .  S
In349       O357   2.238       .  S
In349       O358   2.229       .  S
In349       O361   2.234       .  S
C350        O356   1.260       .  A
C350        O358   1.259       .  A
C350        C461   1.476       .  S
O351        C359   1.260       .  A
O352        C359   1.258       .  A
C353        O360   1.261       .  A
C353        O354   1.260       .  A
C353        C512   1.480       .  S
C355        O357   1.262       .  A
C355        O361   1.261       .  A
C355        C449   1.478       .  S
C359        C437   1.484       .  S
In362       O364   2.232       .  S
In362       O365   2.245       .  S
In362       O373   2.236       .  S
In362       O367   2.234       .  S
In362       O369   2.255       .  S
In362       O370   2.243       .  S
In362       O371   2.219       .  S
In362       O374   2.244       .  S
C363        O369   1.261       .  A
C363        O371   1.258       .  A
C363        C464   1.474       .  S
O364        C372   1.261       .  A
O365        C372   1.261       .  A
C366        O373   1.262       .  A
C366        O367   1.260       .  A
C366        C548   1.485       .  S
C368        O370   1.260       .  A
C368        O374   1.260       .  A
C368        C413   1.478       .  S
C372        C425   1.485       .  S
In375       O377   2.248       .  S
In375       O378   2.232       .  S
In375       O386   2.241       .  S
In375       O972   2.235       .  S
In375       O382   2.256       .  S
In375       O975   2.240       .  S
In375       O976   2.218       .  S
In375       O979   2.234       .  S
C376        O382   1.263       .  A
C376        O976   1.258       .  A
C376        C401   1.473       .  S
O377        C385   1.261       .  A
O378        C385   1.260       .  A
C379        O386   1.261       .  A
C379        O972   1.262       .  A
C379        C476   1.478       .  S
O380       In967   2.235       .  S
O380        C971   1.262       .  A
C381        O383   1.262       .  A
C381        O387   1.259       .  A
C381        C416   1.484       .  S
O383       In967   2.240   1_455  S
O384       In967   2.218       .  S
O384        C968   1.258       .  A
C385        C428   1.480       .  S
O387       In967   2.234   1_455  S
In388       O390   2.242   1_655  S
In388       O391   2.241   1_655  S
In388       O399   2.230       .  S
In388       O985   2.244       .  S
In388       O395   2.250       .  S
In388       O988   2.241       .  S
In388       O989   2.212       .  S
In388       O992   2.226       .  S
C389        O987   1.263       .  A
C389        O397   1.259       .  A
C389        C404   1.476       .  S
O390        C398   1.261       .  A
O391        C398   1.261       .  A
C392        O399   1.260       .  A
C392        O985   1.263       .  A
C392        C485   1.479       .  S
O393       In980   2.244       .  S
O393        C984   1.263       .  A
C394        O396   1.264       .  A
C394        O400   1.259       .  A
C394        C452   1.484       .  S
O395        C981   1.263       .  A
O396       In980   2.241       .  S
O397       In980   2.212       .  S
C398        C440   1.481       .  S
O400       In980   2.226       .  S
C401        C994   1.403       .  A
C401        C406   1.412       .  A
C402        C993   1.403       .  A
C402        C403   1.401       .  A
C402        H411   1.084   1_655  S
C403        C996   1.415       .  A
C403        S407   1.801   1_655  S
C404        C995   1.415       .  A
C404        C405   1.404       .  A
C405        C406   1.393       .  A
C405        H412   1.084       .  S
C406        S408   1.805       .  S
S407        H410   1.408       .  S
S408        H409   1.408       .  S
C413        C414   1.403       .  A
C413        C418   1.413       .  A
C414        C415   1.398       .  A
C414        H423   1.084       .  S
C415        C416   1.417       .  A
C415        S419   1.800       .  S
C416        C417   1.406       .  A
C417        C418   1.399       .  A
C417        H424   1.084       .  S
C418        S420   1.803       .  S
S419        H422   1.408       .  S
S420        H421   1.407       .  S
C425        C426   1.405       .  A
C425        C430   1.417       .  A
C426        C427   1.396       .  A
C426        H435   1.084       .  S
C427        C428   1.413       .  A
C427        S431   1.800       .  S
C428        C429   1.404       .  A
C429        C430   1.401       .  A
C429        H436   1.084       .  S
C430        S432   1.801       .  S
S431        H434   1.407       .  S
S432        H433   1.408       .  S
C437        C438   1.405       .  A
C437        C442   1.417       .  A
C438        C439   1.398       .  A
C438        H447   1.084       .  S
C439        C440   1.415       .  A
C439        S443   1.802       .  S
C440        C441   1.404       .  A
C441        C442   1.399       .  A
C441        H448   1.084       .  S
C442        S444   1.800       .  S
S443        H446   1.408       .  S
S444        H445   1.408       .  S
C449        C450   1.403       .  A
C449        C454   1.413       .  A
C450        C451   1.397       .  A
C450        H459   1.084       .  S
C451        C452   1.418       .  A
C451        S455   1.801       .  S
C452        C453   1.406       .  A
C453        C454   1.398       .  A
C453        H460   1.083       .  S
C454        S456   1.803       .  S
S455        H458   1.408       .  S
S456        H457   1.408       .  S
C461        C462   1.403       .  A
C461        C466   1.415       .  A
C462        C463   1.395       .  A
C462        H471   1.084       .  S
C463        C464   1.412       .  A
C463        S467   1.805       .  S
C464        C465   1.403       .  A
C465        C466   1.401       .  A
C465        H472   1.084       .  S
C466        S468   1.801       .  S
S467        H470   1.408       .  S
S468        H469   1.407       .  S
C473        C474   1.404   1_565  A
C473       C1070   1.415   1_556  A
C474        C475   1.397       .  A
C474        H483   1.084       .  S
C475        S479   1.803       .  S
C476       C1069   1.405       .  A
C477       C1068   1.405       .  A
C477        H484   1.084       .  S
C478       C1065   1.415   1_554  A
C485        C782   1.404       .  A
C485        C490   1.415   1_655  A
C486        C781   1.404   1_556  A
C486        C487   1.399       .  A
C486        H495   1.084       .  S
C487       C1080   1.414       .  A
C487        S491   1.804       .  S
C488       C1079   1.414       .  A
C489        C490   1.397       .  A
C489        H496   1.084       .  S
C490        S492   1.802       .  S
S491        H494   1.408       .  S
S492        H493   1.408       .  S
C497        C498   1.405       .  A
C497       C1094   1.413       .  A
C498        C499   1.405       .  A
C498        H507   1.084       .  S
C499        C500   1.416       .  A
C499        S503   1.801       .  S
C500       C1093   1.403       .  A
C501       C1092   1.403       .  A
C501        C502   1.395       .  A
C501        H508   1.084       .  S
C502       C1089   1.413       .  A
C502        S504   1.805       .  S
S503        H506   1.408       .  S
S504        H505   1.408       .  S
C509        C510   1.404       .  A
C509        C514   1.414       .  A
C510        C511   1.397       .  A
C510        H519   1.084       .  S
C511        C512   1.415       .  A
C511        S515   1.803       .  S
C512        C513   1.405       .  A
C513        C514   1.400       .  A
C513        H520   1.084       .  S
C514        S516   1.802       .  S
S515        H518   1.408       .  S
S516        H517   1.408       .  S
C521        C522   1.405       .  A
C521        C526   1.415       .  A
C522        C523   1.401       .  A
C522        H531   1.082       .  S
C523        C524   1.413       .  A
C523        S527   1.809       .  S
C524        C525   1.404       .  A
C525        C526   1.403       .  A
C525        H532   1.082       .  S
C526        S528   1.808       .  S
S527        H530   1.407       .  S
S528        H529   1.407       .  S
C533        C534   1.405       .  A
C533        C538   1.416       .  A
C534        C535   1.396       .  A
C534        H543   1.084       .  S
C535        C536   1.412       .  A
C535        S539   1.800       .  S
C536        C537   1.403       .  A
C537        C538   1.399       .  A
C537        H544   1.084       .  S
C538        S540   1.802       .  S
S539        H542   1.407       .  S
S540        H541   1.408       .  S
C545        C546   1.406   1_565  A
C545        C550   1.416       .  A
C546        C547   1.398       .  A
C546        H555   1.084       .  S
C547        C548   1.416       .  A
C547        S551   1.801       .  S
C548        C549   1.405       .  A
C549        C550   1.399   1_545  A
C549        H556   1.084   1_545  S
C550        S552   1.800       .  S
S551        H554   1.408       .  S
S552        H553   1.408       .  S
C557        C558   1.406       .  A
C557        C562   1.418       .  A
C558        C559   1.398       .  A
C558        H567   1.083       .  S
C559        C560   1.413       .  A
C559        S563   1.803       .  S
C560        C561   1.404       .  A
C561        C562   1.401       .  A
C561        H568   1.084       .  S
C562        S564   1.801       .  S
S563        H566   1.408       .  S
S564        H565   1.408       .  S
C569        C570   1.402       .  A
C569        C574   1.412       .  A
C570        C571   1.401       .  A
C570        H579   1.084       .  S
C571        C572   1.418       .  A
C571        S575   1.800       .  S
C572        C573   1.406       .  A
C573        C574   1.398       .  A
C573        H580   1.083       .  S
C574        S576   1.804       .  S
S575        H578   1.407       .  S
S576        H577   1.408       .  S
C581        C582   1.403       .  A
C581        C586   1.414       .  A
C582        C583   1.396       .  A
C582        H591   1.084       .  S
C583        C584   1.414       .  A
C583        S587   1.805       .  S
C584        C585   1.404       .  A
C585        C586   1.403       .  A
C585        H592   1.084       .  S
C586        S588   1.801       .  S
S587        H590   1.408       .  S
S588        H589   1.408       .  S
In593       O595   2.244       .  S
In593       O596   2.237       .  S
In593       O604   2.236       .  S
In593       O598   2.246       .  S
In593       O600   2.260       .  S
In593       O601   2.253       .  S
In593       O602   2.228       .  S
In593       O605   2.230       .  S
C594        O600   1.263       .  A
C594        O602   1.258       .  A
C594        C877   1.479       .  S
O595        C603   1.260       .  A
O596        C603   1.262       .  A
C597        O604   1.262       .  A
C597        O598   1.262       .  A
C597        C841   1.488       .  S
C599        O601   1.261       .  A
C599        O605   1.259       .  A
C599        C865   1.477       .  S
C603        C853   1.488       .  S
In606       O608   2.234       .  S
In606       O609   2.246       .  S
In606       O617   2.230       .  S
In606       O611   2.245       .  S
In606       O613   2.263       .  S
In606       O614   2.241       .  S
In606       O615   2.222       .  S
In606       O618   2.235       .  S
C607        O613   1.263       .  A
C607        O615   1.258       .  A
C607        C880   1.477       .  S
O608        C616   1.260       .  A
O609        C616   1.262       .  A
C610        O617   1.261       .  A
C610        O611   1.263       .  A
C610        C805   1.479       .  S
C612        O614   1.261       .  A
C612        O618   1.261       .  A
C612        C829   1.481       .  S
C616        C820   1.481       .  S
In619       O621   2.240       .  S
In619       O622   2.235       .  S
In619       O630   2.229       .  S
In619       O626   2.267       .  S
C620        O628   1.258       .  A
C620        C793   1.478       .  S
O621        C629   1.261       .  A
O622        C629   1.261       .  A
C623        O630   1.260       .  A
C623        C784   1.476       .  S
C625        O627   1.259       .  A
C625        O631   1.261       .  A
C625        C832   1.475       .  S
C629        C817   1.483       .  S
In632       O634   2.234   1_455  S
In632       O635   2.251   1_455  S
In632       O643   2.235       .  S
In632       O639   2.263       .  S
C633        O639   1.263       .  A
C633        C796   1.483       .  S
O634        C642   1.260       .  A
O635        C642   1.262       .  A
C636        O643   1.261       .  A
C636        C769   1.481       .  S
C638        O640   1.263       .  A
C638        O644   1.260       .  A
C638        C868   1.487       .  S
C642        C856   1.481       .  S
In645       O647   2.245       .  S
In645       O648   2.240       .  S
In645       O656   2.245       .  S
In645       O650   2.234       .  S
In645       O652   2.257       .  S
In645       O653   2.238       .  S
In645       O654   2.229       .  S
In645       O657   2.234       .  S
C646        O652   1.260       .  A
C646        O654   1.259       .  A
C646        C757   1.476       .  S
O647        C655   1.260       .  A
O648        C655   1.258       .  A
C649        O656   1.261       .  A
C649        O650   1.260       .  A
C649        C808   1.480       .  S
C651        O653   1.262       .  A
C651        O657   1.261       .  A
C651        C745   1.478       .  S
C655        C733   1.484       .  S
In658       O660   2.232       .  S
In658       O661   2.245       .  S
In658       O669   2.236       .  S
In658       O663   2.234       .  S
In658       O665   2.255       .  S
In658       O666   2.243       .  S
In658       O667   2.219       .  S
In658       O670   2.244       .  S
C659        O665   1.261       .  A
C659        O667   1.258       .  A
C659        C760   1.474       .  S
O660        C668   1.261       .  A
O661        C668   1.261       .  A
C662        O669   1.262       .  A
C662        O663   1.260       .  A
C662        C844   1.485       .  S
C664        O666   1.260       .  A
C664        O670   1.260       .  A
C664        C709   1.479       .  S
C668        C721   1.485       .  S
In671       O673   2.248       .  S
In671       O674   2.232       .  S
In671       O682   2.241       .  S
In671       O678   2.256       .  S
C672        O678   1.263       .  A
C672        C697   1.473       .  S
O673        C681   1.261       .  A
O674        C681   1.260       .  A
C675        O682   1.261       .  A
C675        C772   1.478   1_655  S
C677        O679   1.262       .  A
C677        O683   1.259       .  A
C677        C712   1.484       .  S
C681        C724   1.480       .  S
In684       O686   2.243       .  S
In684       O687   2.241       .  S
In684       O695   2.230       .  S
In684       O691   2.250       .  S
C685        O693   1.259       .  A
C685        C700   1.476       .  S
O686        C694   1.261       .  A
O687        C694   1.261       .  A
C688        O695   1.260       .  A
C688        C781   1.479       .  S
C690        O692   1.264       .  A
C690        O696   1.259       .  A
C690        C748   1.484       .  S
C694        C736   1.481       .  S
C697        C702   1.412       .  A
C698        C699   1.401       .  A
C698        H707   1.084       .  S
C699        S703   1.801       .  S
C700        C701   1.404       .  A
C701        C702   1.393       .  A
C701        H708   1.084       .  S
C702        S704   1.805       .  S
S703        H706   1.408       .  S
S704        H705   1.408       .  S
C709        C710   1.403       .  A
C709        C714   1.413       .  A
C710        C711   1.398       .  A
C710        H719   1.084       .  S
C711        C712   1.417       .  A
C711        S715   1.800       .  S
C712        C713   1.406       .  A
C713        C714   1.399       .  A
C713        H720   1.084       .  S
C714        S716   1.803       .  S
S715        H718   1.408       .  S
S716        H717   1.407       .  S
C721        C722   1.405       .  A
C721        C726   1.417       .  A
C722        C723   1.396       .  A
C722        H731   1.084       .  S
C723        C724   1.413       .  A
C723        S727   1.800       .  S
C724        C725   1.404       .  A
C725        C726   1.401       .  A
C725        H732   1.084       .  S
C726        S728   1.801       .  S
S727        H730   1.407       .  S
S728        H729   1.408       .  S
C733        C734   1.405       .  A
C733        C738   1.417       .  A
C734        C735   1.398       .  A
C734        H743   1.084       .  S
C735        C736   1.415       .  A
C735        S739   1.802       .  S
C736        C737   1.404       .  A
C737        C738   1.399       .  A
C737        H744   1.084       .  S
C738        S740   1.800       .  S
S739        H742   1.408       .  S
S740        H741   1.408       .  S
C745        C746   1.403       .  A
C745        C750   1.413       .  A
C746        C747   1.397       .  A
C746        H755   1.084       .  S
C747        C748   1.418       .  A
C747        S751   1.801       .  S
C748        C749   1.406       .  A
C749        C750   1.398       .  A
C749        H756   1.083       .  S
C750        S752   1.803       .  S
S751        H754   1.408       .  S
S752        H753   1.408       .  S
C757        C758   1.403       .  A
C757        C762   1.415       .  A
C758        C759   1.394       .  A
C758        H767   1.084       .  S
C759        C760   1.412       .  A
C759        S763   1.805       .  S
C760        C761   1.403       .  A
C761        C762   1.401       .  A
C761        H768   1.084       .  S
C762        S764   1.801       .  S
S763        H766   1.408       .  S
S764        H765   1.407       .  S
C769        C770   1.404   1_465  A
C770        C771   1.397       .  A
C770        H779   1.084       .  S
C771       C1068   1.412   1_655  A
C771        S775   1.803       .  S
C772       C1067   1.412   1_454  A
C773       C1070   1.401   1_545  A
C773        H780   1.084       .  S
C774       C1069   1.401   1_565  A
C774       S1072   1.802       .  S
S775       H1074   1.408       .  S
S776       C1070   1.802       .  S
S776       H1073   1.408   1_554  S
H777       S1072   1.408       .  S
H778       S1071   1.408   1_554  S
C781        C786   1.415       .  A
C782        C783   1.399       .  A
C782        H791   1.084       .  S
C783        S787   1.804       .  S
C784       C1081   1.402       .  A
C785       C1080   1.402   1_554  A
C785        C786   1.397       .  A
C785        H792   1.084       .  S
C786        S788   1.802       .  S
S787        H790   1.408       .  S
S788        H789   1.408       .  S
C793        C794   1.405   1_455  A
C794        C795   1.405       .  A
C794        H803   1.084       .  S
C795        C796   1.416   1_655  A
C795        S799   1.801       .  S
C797        C798   1.395       .  A
C797        H804   1.084       .  S
C798        S800   1.805       .  S
S799        H802   1.408       .  S
S800        H801   1.408       .  S
C805        C806   1.404       .  A
C805        C810   1.414       .  A
C806        C807   1.397       .  A
C806        H815   1.084       .  S
C807        C808   1.415       .  A
C807        S811   1.803       .  S
C808        C809   1.405       .  A
C809        C810   1.400       .  A
C809        H816   1.084       .  S
C810        S812   1.802       .  S
S811        H814   1.408       .  S
S812        H813   1.408       .  S
C817        C818   1.405       .  A
C817        C822   1.415       .  A
C818        C819   1.401       .  A
C818        H827   1.082       .  S
C819        C820   1.413       .  A
C819        S823   1.809       .  S
C820        C821   1.404       .  A
C821        C822   1.403       .  A
C821        H828   1.082       .  S
C822        S824   1.808       .  S
S823        H826   1.407       .  S
S824        H825   1.407       .  S
C829        C830   1.405       .  A
C829        C834   1.416       .  A
C830        C831   1.396       .  A
C830        H839   1.084       .  S
C831        C832   1.412       .  A
C831        S835   1.800       .  S
C832        C833   1.403       .  A
C833        C834   1.399       .  A
C833        H840   1.084       .  S
C834        S836   1.802       .  S
S835        H838   1.407       .  S
S836        H837   1.408       .  S
C841        C842   1.406   1_565  A
C841        C846   1.416       .  A
C842        C843   1.398       .  A
C842        H851   1.084       .  S
C843        C844   1.416       .  A
C843        S847   1.801       .  S
C844        C845   1.405       .  A
C845        C846   1.399   1_545  A
C845        H852   1.084   1_545  S
C846        S848   1.800       .  S
S847        H850   1.408       .  S
S848        H849   1.408       .  S
C853        C854   1.406       .  A
C853        C858   1.418       .  A
C854        C855   1.398       .  A
C854        H863   1.083       .  S
C855        C856   1.413       .  A
C855        S859   1.803       .  S
C856        C857   1.404       .  A
C857        C858   1.401       .  A
C857        H864   1.084       .  S
C858        S860   1.801       .  S
S859        H862   1.408       .  S
S860        H861   1.408       .  S
C865        C866   1.402       .  A
C865        C870   1.412       .  A
C866        C867   1.401       .  A
C866        H875   1.084       .  S
C867        C868   1.418       .  A
C867        S871   1.800       .  S
C868        C869   1.406       .  A
C869        C870   1.398       .  A
C869        H876   1.083       .  S
C870        S872   1.804       .  S
S871        H874   1.407       .  S
S872        H873   1.408       .  S
C877        C878   1.403       .  A
C877        C882   1.414       .  A
C878        C879   1.396       .  A
C878        H887   1.084       .  S
C879        C880   1.414       .  A
C879        S883   1.805       .  S
C880        C881   1.404       .  A
C881        C882   1.403       .  A
C881        H888   1.084       .  S
C882        S884   1.801       .  S
S883        H886   1.408       .  S
S884        H885   1.408       .  S
In889       O891   2.244       .  S
In889       O892   2.237       .  S
In889       O900   2.236       .  S
In889       O894   2.246       .  S
In889       O896   2.260       .  S
In889       O897   2.253       .  S
In889       O898   2.228       .  S
In889       O901   2.230       .  S
C890        O896   1.263       .  A
C890        O898   1.258       .  A
C890       C1173   1.479       .  S
O891        C899   1.260       .  A
O892        C899   1.262       .  A
C893        O900   1.262       .  A
C893        O894   1.262       .  A
C893       C1137   1.488       .  S
C895        O897   1.261       .  A
C895        O901   1.259       .  A
C895       C1161   1.477       .  S
C899       C1149   1.488       .  S
In902       O904   2.234       .  S
In902       O905   2.246       .  S
In902       O913   2.230       .  S
In902       O907   2.245       .  S
In902       O909   2.263       .  S
In902       O910   2.241       .  S
In902       O911   2.222       .  S
In902       O914   2.235       .  S
C903        O909   1.263       .  A
C903        O911   1.258       .  A
C903       C1176   1.477       .  S
O904        C912   1.260       .  A
O905        C912   1.262       .  A
C906        O913   1.261       .  A
C906        O907   1.263       .  A
C906       C1101   1.479       .  S
C908        O910   1.261       .  A
C908        O914   1.261       .  A
C908       C1125   1.481       .  S
C912       C1116   1.481       .  S
In915       O917   2.240       .  S
In915       O918   2.235       .  S
In915       O926   2.229       .  S
In915       O922   2.267       .  S
C916        O924   1.258       .  A
C916       C1089   1.478       .  S
O917        C925   1.261       .  A
O918        C925   1.261       .  A
C919        O926   1.260       .  A
C919       C1080   1.476       .  S
C921        O923   1.259       .  A
C921        O927   1.261       .  A
C921       C1128   1.475       .  S
C925       C1113   1.483       .  S
In928       O930   2.234   1_455  S
In928       O931   2.251   1_455  S
In928       O939   2.236       .  S
In928       O935   2.263       .  S
C929        O935   1.263       .  A
C929       C1092   1.483       .  S
O930        C938   1.260       .  A
O931        C938   1.262       .  A
C932        O939   1.261       .  A
C932       C1065   1.481       .  S
C934        O936   1.263       .  A
C934        O940   1.260       .  A
C934       C1164   1.487       .  S
C938       C1152   1.481       .  S
In941       O943   2.245       .  S
In941       O944   2.240       .  S
In941       O952   2.245       .  S
In941       O946   2.234       .  S
In941       O948   2.257       .  S
In941       O949   2.238       .  S
In941       O950   2.229       .  S
In941       O953   2.234       .  S
C942        O948   1.260       .  A
C942        O950   1.259       .  A
C942       C1053   1.476       .  S
O943        C951   1.260       .  A
O944        C951   1.258       .  A
C945        O952   1.261       .  A
C945        O946   1.260       .  A
C945       C1104   1.480       .  S
C947        O949   1.262       .  A
C947        O953   1.261       .  A
C947       C1041   1.478       .  S
C951       C1029   1.484       .  S
In954       O956   2.232       .  S
In954       O957   2.245       .  S
In954       O965   2.236       .  S
In954       O959   2.234       .  S
In954       O961   2.255       .  S
In954       O962   2.242       .  S
In954       O963   2.219       .  S
In954       O966   2.244       .  S
C955        O961   1.261       .  A
C955        O963   1.258       .  A
C955       C1056   1.474       .  S
O956        C964   1.261       .  A
O957        C964   1.261       .  A
C958        O965   1.262       .  A
C958        O959   1.260       .  A
C958       C1140   1.485       .  S
C960        O962   1.260       .  A
C960        O966   1.260       .  A
C960       C1005   1.478       .  S
C964       C1017   1.485       .  S
In967       O969   2.248       .  S
In967       O970   2.232       .  S
In967       O978   2.241       .  S
In967       O974   2.256       .  S
C968        O974   1.263       .  A
C968        C993   1.473       .  S
O969        C977   1.261       .  A
O970        C977   1.260       .  A
C971        O978   1.261       .  A
C971       C1068   1.478   1_655  S
C973        O975   1.262       .  A
C973        O979   1.259       .  A
C973       C1008   1.484       .  S
C977       C1020   1.480       .  S
In980       O982   2.243       .  S
In980       O983   2.241       .  S
In980       O991   2.230       .  S
In980       O987   2.250       .  S
C981        O989   1.259       .  A
C981        C996   1.476       .  S
O982        C990   1.261       .  A
O983        C990   1.261       .  A
C984        O991   1.260       .  A
C984       C1077   1.479       .  S
C986        O988   1.264       .  A
C986        O992   1.259       .  A
C986       C1044   1.484       .  S
C990       C1032   1.481       .  S
C993        C998   1.412       .  A
C994        C995   1.401       .  A
C994       H1003   1.084       .  S
C995        S999   1.801       .  S
C996        C997   1.404       .  A
C997        C998   1.393       .  A
C997       H1004   1.084       .  S
C998       S1000   1.805       .  S
S999       H1002   1.408       .  S
S1000      H1001   1.408       .  S
C1005      C1006   1.403       .  A
C1005      C1010   1.413       .  A
C1006      C1007   1.398       .  A
C1006      H1015   1.084       .  S
C1007      C1008   1.417       .  A
C1007      S1011   1.800       .  S
C1008      C1009   1.406       .  A
C1009      C1010   1.399       .  A
C1009      H1016   1.084       .  S
C1010      S1012   1.803       .  S
S1011      H1014   1.408       .  S
S1012      H1013   1.407       .  S
C1017      C1018   1.405       .  A
C1017      C1022   1.417       .  A
C1018      C1019   1.396       .  A
C1018      H1027   1.084       .  S
C1019      C1020   1.413       .  A
C1019      S1023   1.800       .  S
C1020      C1021   1.404       .  A
C1021      C1022   1.401       .  A
C1021      H1028   1.084       .  S
C1022      S1024   1.801       .  S
S1023      H1026   1.407       .  S
S1024      H1025   1.408       .  S
C1029      C1030   1.405       .  A
C1029      C1034   1.417       .  A
C1030      C1031   1.398       .  A
C1030      H1039   1.084       .  S
C1031      C1032   1.415       .  A
C1031      S1035   1.802       .  S
C1032      C1033   1.404       .  A
C1033      C1034   1.399       .  A
C1033      H1040   1.084       .  S
C1034      S1036   1.800       .  S
S1035      H1038   1.408       .  S
S1036      H1037   1.408       .  S
C1041      C1042   1.403       .  A
C1041      C1046   1.413       .  A
C1042      C1043   1.397       .  A
C1042      H1051   1.084       .  S
C1043      C1044   1.418       .  A
C1043      S1047   1.801       .  S
C1044      C1045   1.406       .  A
C1045      C1046   1.398       .  A
C1045      H1052   1.083       .  S
C1046      S1048   1.803       .  S
S1047      H1050   1.408       .  S
S1048      H1049   1.408       .  S
C1053      C1054   1.403       .  A
C1053      C1058   1.415       .  A
C1054      C1055   1.395       .  A
C1054      H1063   1.084       .  S
C1055      C1056   1.412       .  A
C1055      S1059   1.805       .  S
C1056      C1057   1.403       .  A
C1057      C1058   1.401       .  A
C1057      H1064   1.084       .  S
C1058      S1060   1.801       .  S
S1059      H1062   1.408       .  S
S1060      H1061   1.407       .  S
C1065      C1066   1.404   1_465  A
C1066      C1067   1.397       .  A
C1066      H1075   1.084       .  S
C1067      S1071   1.803       .  S
C1069      H1076   1.084       .  S
C1077      C1082   1.415       .  A
C1078      C1079   1.399       .  A
C1078      H1087   1.084       .  S
C1079      S1083   1.804       .  S
C1081      C1082   1.397       .  A
C1081      H1088   1.084       .  S
C1082      S1084   1.802       .  S
S1083      H1086   1.408       .  S
S1084      H1085   1.408       .  S
C1089      C1090   1.405   1_455  A
C1090      C1091   1.405       .  A
C1090      H1099   1.084       .  S
C1091      C1092   1.416   1_655  A
C1091      S1095   1.801       .  S
C1093      C1094   1.395       .  A
C1093      H1100   1.084       .  S
C1094      S1096   1.805       .  S
S1095      H1098   1.408       .  S
S1096      H1097   1.408       .  S
C1101      C1102   1.404       .  A
C1101      C1106   1.414       .  A
C1102      C1103   1.397       .  A
C1102      H1111   1.084       .  S
C1103      C1104   1.415       .  A
C1103      S1107   1.803       .  S
C1104      C1105   1.405       .  A
C1105      C1106   1.400       .  A
C1105      H1112   1.084       .  S
C1106      S1108   1.802       .  S
S1107      H1110   1.408       .  S
S1108      H1109   1.408       .  S
C1113      C1114   1.405       .  A
C1113      C1118   1.415       .  A
C1114      C1115   1.401       .  A
C1114      H1123   1.082       .  S
C1115      C1116   1.413       .  A
C1115      S1119   1.809       .  S
C1116      C1117   1.404       .  A
C1117      C1118   1.403       .  A
C1117      H1124   1.082       .  S
C1118      S1120   1.808       .  S
S1119      H1122   1.407       .  S
S1120      H1121   1.407       .  S
C1125      C1126   1.405       .  A
C1125      C1130   1.416       .  A
C1126      C1127   1.396       .  A
C1126      H1135   1.084       .  S
C1127      C1128   1.412       .  A
C1127      S1131   1.800       .  S
C1128      C1129   1.403       .  A
C1129      C1130   1.399       .  A
C1129      H1136   1.084       .  S
C1130      S1132   1.802       .  S
S1131      H1134   1.407       .  S
S1132      H1133   1.408       .  S
C1137      C1138   1.406   1_565  A
C1137      C1142   1.416       .  A
C1138      C1139   1.398       .  A
C1138      H1147   1.084       .  S
C1139      C1140   1.416       .  A
C1139      S1143   1.801       .  S
C1140      C1141   1.405       .  A
C1141      C1142   1.399   1_545  A
C1141      H1148   1.084   1_545  S
C1142      S1144   1.800       .  S
S1143      H1146   1.408       .  S
S1144      H1145   1.408       .  S
C1149      C1150   1.406       .  A
C1149      C1154   1.418       .  A
C1150      C1151   1.398       .  A
C1150      H1159   1.083       .  S
C1151      C1152   1.413       .  A
C1151      S1155   1.803       .  S
C1152      C1153   1.404       .  A
C1153      C1154   1.401       .  A
C1153      H1160   1.084       .  S
C1154      S1156   1.801       .  S
S1155      H1158   1.408       .  S
S1156      H1157   1.408       .  S
C1161      C1162   1.402       .  A
C1161      C1166   1.412       .  A
C1162      C1163   1.401       .  A
C1162      H1171   1.084       .  S
C1163      C1164   1.418       .  A
C1163      S1167   1.800       .  S
C1164      C1165   1.406       .  A
C1165      C1166   1.398       .  A
C1165      H1172   1.083       .  S
C1166      S1168   1.804       .  S
S1167      H1170   1.407       .  S
S1168      H1169   1.408       .  S
C1173      C1174   1.403       .  A
C1173      C1178   1.414       .  A
C1174      C1175   1.396       .  A
C1174      H1183   1.084       .  S
C1175      C1176   1.414       .  A
C1175      S1179   1.805       .  S
C1176      C1177   1.404       .  A
C1177      C1178   1.403       .  A
C1177      H1184   1.084       .  S
C1178      S1180   1.801       .  S
S1179      H1182   1.408       .  S
S1180      H1181   1.408       .  S
