geometry optimzed in LAMMPS
_audit_creation_date              2020-11-30 
_audit_creation_method            'lammps2cif' 
_symmetry_space_group_name_H-M    'P1' 
_symmetry_Int_Tables_number       1 
_symmetry_cell_setting            triclinic 
loop_ 
_symmetry_equiv_pos_as_xyz 
  x,y,z 
_cell_length_a                    62.87754528 
_cell_length_b                    67.54930541411724 
_cell_length_c                    35.24702767930714 
_cell_angle_alpha                 90.79076642747836 
_cell_angle_beta                  88.52295827843481 
_cell_angle_gamma                 90.15286791081235 
loop_ 
_atom_site_label 
_atom_site_type_symbol 
_atom_site_fract_x 
_atom_site_fract_y 
_atom_site_fract_z 
_atom_site_charge 
O1          O  0.63910079  0.93268168  0.14345242    -0.81500
O2          O  0.63686941  0.84303017  0.09861502    -0.66200
O3          O  0.62035771  0.89700611  0.11879719    -1.12800
C4          C  0.62025798  0.87511278  0.24675658     1.05400
O5          O  0.60976623  0.83330799  0.13473161    -0.79400
O6          O  0.58619952  0.85701256  0.18017268    -0.67000
Ni7        Ni  0.63551675  0.91848865  0.09618917     1.34900
C8          C  0.57858130  0.87425075  0.17699105     0.84100
O9          O  0.62942227  0.87377066  0.05287991    -0.79900
O10         O  0.63327987  0.90663895  0.04646653    -0.90200
C11         C  0.62420484  0.82951074  0.10985055     0.83700
O12         O  0.66349214  0.90835938  0.10097888    -0.68400
O13         O  0.61756099  0.85786408  0.23234221    -0.87700
C14         C  0.67112484  0.89116246  0.10484911     0.84500
C15         C  0.63136284  0.88920238  0.03247772     1.06100
H16         H  0.64369610  0.86688212  0.16909376     0.37900
O17         O  0.62919830  0.86817817  0.16101141    -1.10400
O18         O  0.59015302  0.88970064  0.17405797    -0.67000
Ni19       Ni  0.62055994  0.89469278  0.17304532     1.26300
O20         O  0.65959606  0.87570488  0.10749893    -0.67200
O21         O  0.62150390  0.89090107  0.22711457    -0.79500
C22         C  0.62554493  0.93599670  0.17014717     0.83900
O23         O  0.61350929  0.92217178  0.18237000    -0.66700
Ni24       Ni  0.61411948  0.84656112  0.18273015     1.27400
Ni25       Ni  0.62940269  0.87043705  0.10708244     1.26100
H26         H  0.60579972  0.89815995  0.11099246     0.38400
O27         O  0.62853801  0.93467863  0.62897462    -0.81500
O28         O  0.62906020  0.84101674  0.59957224    -0.66200
O29         O  0.61544960  0.89586239  0.61538707    -1.12800
C30         C  0.62108803  0.87668952  0.74597949     1.05400
O31         O  0.60324975  0.83427203  0.64042985    -0.79400
O32         O  0.58427243  0.85828472  0.69192095    -0.67000
Ni33       Ni  0.63239287  0.91504553  0.58938370     1.34900
C34         C  0.57622136  0.87471810  0.68304339     0.84100
O35         O  0.61928321  0.87054665  0.55274909    -0.79900
O36         O  0.63739257  0.89861709  0.54469836    -0.90200
C37         C  0.61655188  0.82851215  0.61497950     0.83700
O38         O  0.65762426  0.90586151  0.61162989    -0.68400
O39         O  0.62012281  0.85888879  0.73349930    -0.87700
C40         C  0.66530715  0.88855918  0.60755319     0.84500
C41         C  0.62843812  0.88316321  0.53152034     1.06100
H42         H  0.64075906  0.86715168  0.66538774     0.37900
O43         O  0.62584998  0.86809904  0.65968677    -1.10400
O44         O  0.58729639  0.88936864  0.67195301    -0.67000
Ni45       Ni  0.61737018  0.89461653  0.66995064     1.26300
O46         O  0.65363314  0.87348143  0.60022843    -0.67200
O47         O  0.61914725  0.89189866  0.72480678    -0.79500
C48         C  0.61796246  0.93659051  0.66009683     0.83900
O49         O  0.61017037  0.92189527  0.67796545    -0.66700
Ni50       Ni  0.61203862  0.84724879  0.68626241     1.27400
Ni51       Ni  0.62298205  0.86876885  0.60608007     1.26100
H52         H  0.60085957  0.89775403  0.60828094     0.38400
O53         O  0.86897200  0.93338639  0.06292575    -0.81500
O54         O  0.86582738  0.83995439  0.09475439    -0.66200
O55         O  0.88125039  0.89429477  0.07651857    -1.12800
C56         C  0.87400658  0.87275126  0.94712239     1.05400
O57         O  0.89126226  0.83165620  0.05381816    -0.79400
O58         O  0.91156839  0.85504200  0.00449130    -0.67000
Ni59       Ni  0.86600382  0.91474392  0.10346023     1.34900
C60         C  0.91917305  0.87223492  0.00970329     0.84100
O61         O  0.87713959  0.87015020  0.14039432    -0.79900
O62         O  0.86206530  0.89969897  0.14920173    -0.90200
C63         C  0.87790008  0.82682622  0.07965933     0.83700
O64         O  0.83950231  0.90585478  0.08483249    -0.68400
O65         O  0.87679638  0.85530145  0.95952536    -0.87700
C66         C  0.83148239  0.88865786  0.08846756     0.84500
C67         C  0.86940847  0.88365225  0.16197773     1.06100
H68         H  0.85457682  0.86420766  0.02861838     0.37900
O69         O  0.86953566  0.86557536  0.03376212    -1.10400
O70         O  0.90765227  0.88726869  0.01696386    -0.67000
Ni71       Ni  0.87759184  0.89198968  0.02228186     1.26300
O72         O  0.84275646  0.87327740  0.09406073    -0.67200
O73         O  0.87403358  0.88828109  0.96837735    -0.79500
C74         C  0.87791051  0.93423941  0.03021250     0.83900
O75         O  0.88451695  0.91897626  0.01219712    -0.66700
Ni76       Ni  0.88356786  0.84428106  0.00758683     1.27400
Ni77       Ni  0.87297885  0.86747790  0.08719182     1.26100
H78         H  0.89613319  0.89584939  0.08208950     0.38400
O79         O  0.85925148  0.92841258  0.55359107    -0.81500
O80         O  0.85893072  0.83723442  0.59343257    -0.66200
O81         O  0.87660321  0.89140875  0.57554939    -1.12800
C82         C  0.87432182  0.87025014  0.44642378     1.05400
O83         O  0.88456463  0.82715287  0.55435003    -0.79400
O84         O  0.90836857  0.85077904  0.51019893    -0.67000
Ni85       Ni  0.86232117  0.91326341  0.59954256     1.34900
C86         C  0.91659954  0.86777661  0.51486279     0.84100
O87         O  0.86951814  0.86804963  0.64031555    -0.79900
O88         O  0.86446506  0.90086484  0.64810228    -0.90200
C89         C  0.86991449  0.82317745  0.57847650     0.83700
O90         O  0.83405340  0.90369986  0.59404716    -0.68400
O91         O  0.87637935  0.85278443  0.45919798    -0.87700
C92         C  0.82595428  0.88648729  0.59247035     0.84500
C93         C  0.86756563  0.88359630  0.66121408     1.06100
H94         H  0.85109588  0.86200472  0.52537307     0.37900
O95         O  0.86585316  0.86287036  0.53225595    -1.10400
O96         O  0.90553970  0.88342138  0.51944309    -0.67000
Ni97       Ni  0.87544960  0.88928469  0.52149926     1.26300
O98         O  0.83708221  0.87073540  0.59026789    -0.67200
O99         O  0.87384183  0.88581465  0.46746396    -0.79500
C100        C  0.87256015  0.93100920  0.52624434     0.83900
O101        O  0.88370076  0.91659214  0.51330124    -0.66700
Ni102      Ni  0.88001673  0.84102405  0.50779844     1.27400
Ni103      Ni  0.86724561  0.86479394  0.58630814     1.26100
H104        H  0.89129956  0.89240291  0.58272705     0.38400
O105        O  0.86158413  0.07372147  0.39165175    -0.81500
O106        O  0.86541458  0.16738149  0.36031539    -0.66200
O107        O  0.87840212  0.11169338  0.37317609    -1.12800
C108        C  0.87009467  0.12973800  0.50472545     1.05400
O109        O  0.88909382  0.17405472  0.40341548    -0.79400
O110        O  0.90711415  0.14993123  0.45237842    -0.67000
Ni111      Ni  0.86199539  0.09167352  0.34920291     1.34900
C112        C  0.91622773  0.13406932  0.44131133     0.84100
O113        O  0.87447469  0.13693943  0.31086618    -0.79900
O114        O  0.86099780  0.10640805  0.30304629    -0.90200
C115        C  0.87712856  0.17996618  0.37744517     0.83700
O116        O  0.83563548  0.10235194  0.36674479    -0.68400
O117        O  0.87000977  0.14767469  0.49372835    -0.87700
C118        C  0.82843106  0.11977327  0.36352075     0.84500
C119        C  0.86746311  0.12291291  0.28989441     1.06100
H120        H  0.85204497  0.13959077  0.42516312     0.37900
O121        O  0.86711349  0.13923171  0.41910054    -1.10400
O122        O  0.90610380  0.11918478  0.42855856    -0.67000
Ni123      Ni  0.87628040  0.11273651  0.42751373     1.26300
O124        O  0.84048999  0.13488199  0.35978990    -0.67200
O125        O  0.87366621  0.11496142  0.48228496    -0.79500
C126        C  0.87408067  0.07101321  0.41896517     0.83900
O127        O  0.88452150  0.08536876  0.43320731    -0.66700
Ni128      Ni  0.87914749  0.16019322  0.44768806     1.27400
Ni129      Ni  0.87090040  0.13903038  0.36505236     1.26100
H130        H  0.89305571  0.10980066  0.36502497     0.38400
O131        O  0.85567428  0.07424394  0.90115195    -0.81500
O132        O  0.85989421  0.16302747  0.85561863    -0.66200
O133        O  0.87431377  0.10931787  0.87565950    -1.12800
C134        C  0.86925477  0.13266750  0.00447963     1.05400
O135        O  0.88508491  0.17236925  0.89446307    -0.79400
O136        O  0.90493710  0.15031549  0.94570959    -0.67000
Ni137      Ni  0.85923658  0.08775508  0.85375265     1.34900
C138        C  0.91332554  0.13353622  0.93894407     0.84100
O139        O  0.86914712  0.13157880  0.81004900    -0.79900
O140        O  0.86173623  0.09909141  0.80411481    -0.90200
C141        C  0.87222953  0.17628607  0.86840948     0.83700
O142        O  0.83141943  0.09825853  0.86098497    -0.68400
O143        O  0.86953736  0.15009538  0.99084715    -0.87700
C144        C  0.82426366  0.11579349  0.86128742     0.84500
C145        C  0.86579776  0.11601994  0.78993219     1.06100
H146        H  0.84869661  0.13933389  0.92516677     0.37900
O147        O  0.86362370  0.13849467  0.91811670    -1.10400
O148        O  0.90261943  0.11838279  0.92942694    -0.67000
Ni149      Ni  0.87268441  0.11251714  0.92974138     1.26300
O150        O  0.83617936  0.13102807  0.86150822    -0.67200
O151        O  0.87095028  0.11689068  0.98403035    -0.79500
C152        C  0.87004234  0.07131349  0.92508594     0.83900
O153        O  0.88076197  0.08570823  0.93814123    -0.66700
Ni154      Ni  0.87685450  0.16049120  0.94194058     1.27400
Ni155      Ni  0.86634380  0.13572319  0.86406966     1.26100
H156        H  0.88903211  0.10768748  0.86768433     0.38400
O157        O  0.63884239  0.08055152  0.30027447    -0.81500
O158        O  0.63597866  0.16937882  0.34189930    -0.66200
O159        O  0.61888825  0.11572557  0.32418339    -1.12800
C160        C  0.62008508  0.13594056  0.19559059     1.05400
O161        O  0.60930354  0.17878021  0.30701452    -0.79400
O162        O  0.58575085  0.15460005  0.26388698    -0.67000
Ni163      Ni  0.63228531  0.09416595  0.34756212     1.34900
C164        C  0.57833826  0.13726459  0.26819821     0.84100
O165        O  0.62654943  0.13911568  0.38881408    -0.79900
O166        O  0.62651163  0.10602417  0.39638085    -0.90200
C167        C  0.62368780  0.18283257  0.33060824     0.83700
O168        O  0.66054176  0.10430004  0.34777585    -0.68400
O169        O  0.61744122  0.15340939  0.20927934    -0.87700
C170        C  0.66890542  0.12108412  0.34138114     0.84500
C171        C  0.62556763  0.12372778  0.40954397     1.06100
H172        H  0.64353156  0.14527559  0.27186136     0.37900
O173        O  0.62890007  0.14396193  0.28056286    -1.10400
O174        O  0.59007243  0.12209272  0.27086957    -0.67000
Ni175      Ni  0.62027605  0.11737336  0.27015315     1.26300
O176        O  0.65813396  0.13635020  0.33362140    -0.67200
O177        O  0.62159749  0.12051118  0.21600540    -0.79500
C178        C  0.62556472  0.07651183  0.27465632     0.83900
O179        O  0.61338235  0.08989542  0.26257641    -0.66700
Ni180      Ni  0.61379993  0.16517126  0.25896604     1.27400
Ni181      Ni  0.62806560  0.14211216  0.33457500     1.26100
H182        H  0.60413155  0.11499741  0.33237812     0.38400
O183        O  0.63328994  0.07738520  0.79908895    -0.81500
O184        O  0.63136067  0.16825277  0.84212734    -0.66200
O185        O  0.61578699  0.11396769  0.82350327    -1.12800
C186        C  0.61752200  0.13631822  0.69524126     1.05400
O187        O  0.60399694  0.17610174  0.80812549    -0.79400
O188        O  0.58225250  0.15325085  0.76029733    -0.67000
Ni189      Ni  0.63068893  0.09268476  0.84556818     1.34900
C190        C  0.57473571  0.13616572  0.76686942     0.84100
O191        O  0.62257160  0.13768699  0.88851390    -0.79900
O192        O  0.62915650  0.10527131  0.89491655    -0.90200
C193        C  0.61868012  0.18123578  0.83019708     0.83700
O194        O  0.65841982  0.10279386  0.83576635    -0.68400
O195        O  0.61573192  0.15375452  0.70936346    -0.87700
C196        C  0.66597874  0.12017512  0.83356239     0.84500
C197        C  0.62545921  0.12250035  0.90884161     1.06100
H198        H  0.63986359  0.14418322  0.77209045     0.37900
O199        O  0.62520540  0.14283292  0.78060337    -1.10400
O200        O  0.58640393  0.12115219  0.77176543    -0.67000
Ni201      Ni  0.61661341  0.11645739  0.76926510     1.26300
O202        O  0.65448161  0.13567813  0.83416583    -0.67200
O203        O  0.61744433  0.12055463  0.71512067    -0.79500
C204        C  0.62032241  0.07490854  0.77232003     0.83900
O205        O  0.60948731  0.08922393  0.76005716    -0.66700
Ni206      Ni  0.61021006  0.16422699  0.75934086     1.27400
Ni207      Ni  0.62422405  0.14072437  0.83453577     1.26100
H208        H  0.60117010  0.11260236  0.83222695     0.38400
O209        O  0.10767917  0.82801724  0.05374894    -0.81500
O210        O  0.11500083  0.91518280  0.00785612    -0.66200
O211        O  0.12892182  0.86086295  0.02616014    -1.12800
C212        C  0.12701441  0.88253195  0.15564123     1.05400
O213        O  0.13925253  0.92556887  0.04756783    -0.79400
O214        O  0.16116662  0.90129385  0.09261271    -0.67000
Ni215      Ni  0.11238626  0.84001986  0.00544374     1.34900
C216        C  0.16969715  0.88448087  0.08642919     0.84100
O217        O  0.12233046  0.88353517  0.96172176    -0.79900
O218        O  0.11565341  0.85081430  0.95577245    -0.90200
C219        C  0.12595562  0.92918216  0.02199843     0.83700
O220        O  0.08505525  0.85153014  0.01184632    -0.68400
O221        O  0.12768265  0.90003339  0.14249493    -0.87700
C222        C  0.07843757  0.86915101  0.01532608     0.84500
C223        C  0.11913964  0.86788321  0.94174490     1.06100
H224        H  0.10516316  0.89056015  0.07816203     0.37900
O225        O  0.11993454  0.88975447  0.07006466    -1.10400
O226        O  0.15904308  0.86885162  0.07889646    -0.67000
Ni227      Ni  0.12876547  0.86314897  0.08033716     1.26300
O228        O  0.09081855  0.88399878  0.01628778    -0.67200
O229        O  0.12804580  0.86684445  0.13480619    -0.79500
C230        C  0.12249173  0.82228482  0.07456537     0.83900
O231        O  0.13568382  0.83514722  0.08687480    -0.66700
Ni232      Ni  0.13311278  0.91165542  0.09404004     1.27400
Ni233      Ni  0.12123732  0.88759350  0.01578714     1.26100
H234        H  0.14337976  0.85888190  0.01695008     0.38400
O235        O  0.10864891  0.82447143  0.54476237    -0.81500
O236        O  0.11273995  0.91590000  0.51325949    -0.66200
O237        O  0.12768838  0.86112043  0.52624031    -1.12800
C238        C  0.11920255  0.87893491  0.65733751     1.05400
O239        O  0.13584970  0.92490761  0.55616183    -0.79400
O240        O  0.15575104  0.90000504  0.60321638    -0.67000
Ni241      Ni  0.11304841  0.84046318  0.50028243     1.34900
C242        C  0.16493873  0.88361001  0.59587440     0.84100
O243        O  0.12286441  0.88632287  0.46365144    -0.79900
O244        O  0.11613536  0.85404011  0.45308740    -0.90200
C245        C  0.12354014  0.92940526  0.52956711     0.83700
O246        O  0.08497307  0.85048382  0.50744432    -0.68400
O247        O  0.11969363  0.89681352  0.64616750    -0.87700
C248        C  0.07751793  0.86785532  0.51108858     0.84500
C249        C  0.11996409  0.87150557  0.44139550     1.06100
H250        H  0.10086959  0.88866582  0.57836909     0.37900
O251        O  0.11591522  0.88841072  0.57211658    -1.10400
O252        O  0.15505184  0.86824877  0.58417534    -0.67000
Ni253      Ni  0.12506739  0.86182049  0.58055229     1.26300
O254        O  0.08914073  0.88322104  0.51437071    -0.67200
O255        O  0.12177959  0.86389952  0.63513175    -0.79500
C256        C  0.12154286  0.82042834  0.57075685     0.83900
O257        O  0.13282872  0.83409650  0.58558844    -0.66700
Ni258      Ni  0.12749386  0.90981171  0.60017251     1.27400
Ni259      Ni  0.11940771  0.88809847  0.51810728     1.26100
H260        H  0.14255543  0.85991647  0.51895726     0.38400
O261        O  0.38830659  0.83103854  0.15479031    -0.81500
O262        O  0.38217854  0.91794456  0.20913286    -0.66200
O263        O  0.36791993  0.86420585  0.18421848    -1.12800
C264        C  0.37153205  0.88778186  0.05709888     1.05400
O265        O  0.35830447  0.92879942  0.16967102    -0.79400
O266        O  0.33664850  0.90556124  0.12097440    -0.67000
Ni267      Ni  0.38319326  0.84259966  0.20426252     1.34900
C268        C  0.32842254  0.88845300  0.12425640     0.84100
O269        O  0.37335645  0.88561914  0.25129605    -0.79900
O270        O  0.37884388  0.85270550  0.25505815    -0.90200
C271        C  0.37116439  0.93203273  0.19631835     0.83700
O272        O  0.41099071  0.85368506  0.20138143    -0.68400
O273        O  0.37053806  0.90509690  0.07197350    -0.87700
C274        C  0.41818825  0.87119866  0.19940775     0.84500
C275        C  0.37512996  0.86968325  0.27023788     1.06100
H276        H  0.39301968  0.89475695  0.13650914     0.37900
O277        O  0.37814906  0.89373428  0.14381295    -1.10400
O278        O  0.33927798  0.87301873  0.13041026    -0.67000
Ni279      Ni  0.36929479  0.86745010  0.13036299     1.26300
O280        O  0.40622413  0.88631966  0.19834910    -0.67200
O281        O  0.37098199  0.87185870  0.07641845    -0.79500
C282        C  0.37306264  0.82654180  0.13347244     0.83900
O283        O  0.36144086  0.84020540  0.12083643    -0.66700
Ni284      Ni  0.36485790  0.91584435  0.12175749     1.27400
Ni285      Ni  0.37583948  0.89056009  0.19779112     1.26100
H286        H  0.35322269  0.86241197  0.19215720     0.38400
O287        O  0.38495142  0.83139426  0.66268288    -0.81500
O288        O  0.38165714  0.92089848  0.69963936    -0.66200
O289        O  0.36545437  0.86663094  0.68664315    -1.12800
C290        C  0.36678612  0.88364020  0.55585747     1.05400
O291        O  0.35646012  0.93046818  0.66138232    -0.79400
O292        O  0.33277091  0.90501766  0.61986889    -0.67000
Ni293      Ni  0.38070142  0.84591897  0.70960840     1.34900
C294        C  0.32446615  0.88824507  0.62692334     0.84100
O295        O  0.37390197  0.89158218  0.74902850    -0.79900
O296        O  0.37780453  0.85885467  0.75818019    -0.90200
C297        C  0.36999547  0.93444263  0.68665303     0.83700
O298        O  0.40856861  0.85620178  0.70283464    -0.68400
O299        O  0.36543923  0.90155689  0.56767148    -0.87700
C300        C  0.41620379  0.87321846  0.69632740     0.84500
C301        C  0.37577920  0.87662905  0.77057143     1.06100
H302        H  0.38954120  0.89432553  0.63125051     0.37900
O303        O  0.37489953  0.89379339  0.64019217    -1.10400
O304        O  0.33544847  0.87290611  0.63365743    -0.67000
Ni305      Ni  0.36556333  0.86705651  0.63239072     1.26300
O306        O  0.40467381  0.88847766  0.69270939    -0.67200
O307        O  0.36631416  0.86870605  0.57781499    -0.79500
C308        C  0.37012448  0.82626783  0.64087977     0.83900
O309        O  0.35776298  0.83935735  0.62805123    -0.66700
Ni310      Ni  0.36118606  0.91487732  0.61559888     1.27400
Ni311      Ni  0.37440790  0.89339436  0.69448495     1.26100
H312        H  0.35092044  0.86562318  0.69602090     0.38400
O313        O  0.38752774  0.17542782  0.33346308    -0.81500
O314        O  0.38280695  0.08606055  0.28989726    -0.66200
O315        O  0.36787373  0.14026562  0.31001943    -1.12800
C316        C  0.37173252  0.11977356  0.43865361     1.05400
O317        O  0.35835799  0.07597745  0.33144941    -0.79400
O318        O  0.33634538  0.10016619  0.37967271    -0.67000
Ni319      Ni  0.38297037  0.16137480  0.28646347     1.34900
C320        C  0.32782598  0.11681346  0.37339899     0.84100
O321        O  0.37428809  0.11658353  0.24448703    -0.79900
O322        O  0.37985610  0.14926914  0.23722458    -0.90200
C323        C  0.37135241  0.07231521  0.30401651     0.83700
O324        O  0.41076327  0.15095360  0.29021350    -0.68400
O325        O  0.37072926  0.10212472  0.42556493    -0.87700
C326        C  0.41831281  0.13367734  0.29285244     0.84500
C327        C  0.37666685  0.13187717  0.22382217     1.06100
H328        H  0.39272278  0.11127449  0.35887129     0.37900
O329        O  0.37789526  0.11192421  0.35245917    -1.10400
O330        O  0.33864142  0.13236068  0.36585157    -0.67000
Ni331      Ni  0.36881481  0.13841504  0.36410835     1.26300
O332        O  0.40666992  0.11826280  0.29530968    -0.67200
O333        O  0.37024869  0.13522253  0.41825821    -0.79500
C334        C  0.37392498  0.17956389  0.35962077     0.83900
O335        O  0.36153255  0.16611094  0.37256407    -0.66700
Ni336      Ni  0.36476014  0.09019400  0.37755891     1.27400
Ni337      Ni  0.37620699  0.11357175  0.29849087     1.26100
H338        H  0.35322017  0.14162152  0.30285700     0.38400
O339        O  0.38356155  0.17731617  0.83138231    -0.81500
O340        O  0.37979482  0.08732345  0.78725057    -0.66200
O341        O  0.36457539  0.14127058  0.80979883    -1.12800
C342        C  0.36881847  0.12029619  0.93786032     1.05400
O343        O  0.35640100  0.07579294  0.82935761    -0.79400
O344        O  0.33315960  0.10091985  0.87356196    -0.67000
Ni345      Ni  0.37939650  0.16245990  0.78541503     1.34900
C346        C  0.32528102  0.11815153  0.87136615     0.84100
O347        O  0.37055560  0.11766265  0.74375031    -0.79900
O348        O  0.37707827  0.15004455  0.73650652    -0.90200
C349        C  0.36864068  0.07316888  0.80039544     0.83700
O350        O  0.40720143  0.15238339  0.79055971    -0.68400
O351        O  0.36551354  0.10296973  0.92435233    -0.87700
C352        C  0.41479336  0.13507778  0.79214325     0.84500
C353        C  0.37384838  0.13272534  0.72308230     1.06100
H354        H  0.39007686  0.11130750  0.85703043     0.37900
O355        O  0.37522099  0.11245271  0.85107382    -1.10400
O356        O  0.33663730  0.13373356  0.86817067    -0.67000
Ni357      Ni  0.36684384  0.13913513  0.86374862     1.26300
O358        O  0.40322262  0.11958434  0.79337695    -0.67200
O359        O  0.36977631  0.13579454  0.91748429    -0.79500
C360        C  0.37107193  0.18057202  0.85957985     0.83900
O361        O  0.35973112  0.16668967  0.87356627    -0.66700
Ni362      Ni  0.36133253  0.09079577  0.87554330     1.27400
Ni363      Ni  0.37290110  0.11458758  0.79733127     1.26100
H364        H  0.34976241  0.14263400  0.80367201     0.38400
O365        O  0.10777807  0.17618274  0.42028022    -0.81500
O366        O  0.11068173  0.08662643  0.45870105    -0.66200
O367        O  0.12665599  0.14088223  0.44179442    -1.12800
C368        C  0.12413768  0.12147840  0.31120668     1.05400
O369        O  0.13430036  0.07605697  0.41562698    -0.79400
O370        O  0.15776483  0.10061119  0.37210184    -0.67000
Ni371      Ni  0.11167277  0.16208851  0.46646295     1.34900
C372        C  0.16644010  0.11729785  0.37840258     0.84100
O373        O  0.11972827  0.11713410  0.50550733    -0.79900
O374        O  0.11391530  0.14977872  0.51483025    -0.90200
C375        C  0.12152611  0.07263423  0.44331990     0.83700
O376        O  0.08393964  0.15202476  0.46057084    -0.68400
O377        O  0.12503711  0.10381012  0.32330757    -0.87700
C378        C  0.07622214  0.13487479  0.45609802     0.84500
C379        C  0.11708630  0.13236463  0.52697972     1.06100
H380        H  0.10142489  0.11235160  0.39052002     0.37900
O381        O  0.11622672  0.11285692  0.39718856    -1.10400
O382        O  0.15583047  0.13305326  0.38544306    -0.67000
Ni383      Ni  0.12584113  0.13942470  0.38755073     1.26300
O384        O  0.08756183  0.11928800  0.45417968    -0.67200
O385        O  0.12455875  0.13680073  0.33297188    -0.79500
C386        C  0.12229620  0.18058191  0.39627919     0.83900
O387        O  0.13408718  0.16700915  0.38168766    -0.66700
Ni388      Ni  0.12924252  0.09117504  0.37074449     1.27400
Ni389      Ni  0.11786792  0.11420660  0.45143816     1.26100
H390        H  0.14129376  0.14209955  0.44921885     0.38400
O391        O  0.10131192  0.17398500  0.91887354    -0.81500
O392        O  0.10907798  0.08617210  0.95735572    -0.66200
O393        O  0.12324746  0.14087548  0.94068329    -1.12800
C394        C  0.12145826  0.12058938  0.81089083     1.05400
O395        O  0.13492245  0.07769019  0.91718493    -0.79400
O396        O  0.15673428  0.10250346  0.87143710    -0.67000
Ni397      Ni  0.10797071  0.16162851  0.96564109     1.34900
C398        C  0.16429036  0.11975282  0.87653734     0.84100
O399        O  0.11662403  0.11734200  0.00505166    -0.79900
O400        O  0.11356389  0.15039929  0.01381912    -0.90200
C401        C  0.12094320  0.07286181  0.94204126     0.83700
O402        O  0.08038651  0.15025702  0.96542451    -0.68400
O403        O  0.12384816  0.10310775  0.82334533    -0.87700
C404        C  0.07306024  0.13319821  0.95801574     0.84500
C405        C  0.11609198  0.13291924  0.02626852     1.06100
H406        H  0.09972951  0.11100741  0.88922798     0.37900
O407        O  0.11439172  0.11243163  0.89636940    -1.10400
O408        O  0.15272636  0.13491444  0.88371224    -0.67000
Ni409      Ni  0.12224915  0.13939796  0.88643275     1.26300
O410        O  0.08487447  0.11816035  0.95202156    -0.67200
O411        O  0.12083290  0.13615990  0.83211466    -0.79500
C412        C  0.11555348  0.18026088  0.89599054     0.83900
O413        O  0.12825616  0.16768472  0.88022480    -0.66700
Ni414      Ni  0.12897356  0.09134369  0.87114388     1.27400
Ni415      Ni  0.11535005  0.11402954  0.95061830     1.26100
H416        H  0.13790172  0.14244106  0.94780829     0.38400
O417        O  0.92855808  0.36039996  0.39014779    -0.81500
O418        O  0.83277130  0.36324995  0.35754359    -0.66200
O419        O  0.89049058  0.37850279  0.36910101    -1.12800
C420        C  0.87012069  0.37882888  0.50021569     1.05400
O421        O  0.82371463  0.38911530  0.39370986    -0.79400
O422        O  0.84940240  0.41119463  0.43720502    -0.67000
Ni423      Ni  0.91310537  0.36452088  0.34399457     1.34900
C424        C  0.86784891  0.41839476  0.43133698     0.84100
O425        O  0.86458755  0.36993532  0.30717879    -0.79900
O426        O  0.89989569  0.36820406  0.29573890    -0.90200
C427        C  0.81933514  0.37623684  0.36830955     0.83700
O428        O  0.90208237  0.33805250  0.34740138    -0.68400
O429        O  0.85108106  0.38114115  0.48901535    -0.87700
C430        C  0.88389161  0.33060123  0.35499025     0.84500
C431        C  0.88079582  0.36985341  0.28451768     1.06100
H432        H  0.85934745  0.35705535  0.42487435     0.37900
O433        O  0.86055571  0.37048211  0.41593489    -1.10400
O434        O  0.88406555  0.40742278  0.42455145    -0.67000
Ni435      Ni  0.88895349  0.37879270  0.42333995     1.26300
O436        O  0.86756408  0.34136249  0.36220688    -0.67200
O437        O  0.88634377  0.37812840  0.47766740    -0.79500
C438        C  0.93211610  0.37282594  0.41688173     0.83900
O439        O  0.91807596  0.38513495  0.42800516    -0.66700
Ni440      Ni  0.83820599  0.38485703  0.44045746     1.27400
Ni441      Ni  0.86207222  0.36980594  0.36174786     1.26100
H442        H  0.89143021  0.39201203  0.36054832     0.38400
O443        O  0.88975249  0.32776632  0.89396037    -0.81500
O444        O  0.88143355  0.41640616  0.93187463    -0.66200
O445        O  0.86786540  0.36190440  0.91427235    -1.12800
C446        C  0.87854985  0.37954336  0.78401955     1.05400
O447        O  0.85938798  0.42481384  0.88704846    -0.79400
O448        O  0.84049377  0.39989167  0.83704305    -0.67000
Ni449      Ni  0.88139014  0.34127887  0.94021114     1.34900
C450        C  0.83161004  0.38337585  0.84421068     0.84100
O451        O  0.87074940  0.38634448  0.97912353    -0.79900
O452        O  0.87385612  0.35345553  0.98819637    -0.90200
C453        C  0.87117583  0.42959575  0.91454012     0.83700
O454        O  0.90934269  0.35208640  0.94186380    -0.68400
O455        O  0.87767906  0.39749058  0.79573313    -0.87700
C456        C  0.91690237  0.36939085  0.93819990     0.84500
C457        C  0.87073519  0.37112715  0.00053147     1.06100
H458        H  0.89539307  0.38991923  0.86570983     0.37900
O459        O  0.88022898  0.38933061  0.87071888    -1.10400
O460        O  0.84176859  0.36837891  0.85570133    -0.67000
Ni461      Ni  0.87177791  0.36272172  0.86022050     1.26300
O462        O  0.90546525  0.38435671  0.93126379    -0.67200
O463        O  0.87589740  0.36466496  0.80578440    -0.79500
C464        C  0.87699645  0.32239885  0.86842256     0.83900
O465        O  0.86497688  0.33510328  0.85354438    -0.66700
Ni466      Ni  0.86868853  0.41021675  0.84238006     1.27400
Ni467      Ni  0.87542261  0.38868757  0.92484164     1.26100
H468        H  0.85284413  0.36057368  0.92021554     0.38400
O469        O  0.88428638  0.67540925  0.01985473    -0.81500
O470        O  0.87792203  0.58759096  0.97951471    -0.66200
O471        O  0.86240080  0.64170649  0.99816854    -1.12800
C472        C  0.86266597  0.62194158  0.12733061     1.05400
O473        O  0.85148133  0.57851297  0.01762486    -0.79400
O474        O  0.82824250  0.60371034  0.06110990    -0.67000
Ni475      Ni  0.87695566  0.66260170  0.97303871     1.34900
C476        C  0.82103493  0.62116751  0.05871618     0.84100
O477        O  0.87054361  0.61815268  0.93283230    -0.79900
O478        O  0.87039196  0.65120108  0.92464583    -0.90200
C479        C  0.86602924  0.57407632  0.99330690     0.83700
O480        O  0.90492569  0.65160852  0.97036122    -0.68400
O481        O  0.85923542  0.60467540  0.11356767    -0.87700
C482        C  0.91255953  0.63493971  0.97898364     0.84500
C483        C  0.86957281  0.63345177  0.91187231     1.06100
H484        H  0.88566978  0.61181225  0.04909835     0.37900
O485        O  0.87114483  0.61342261  0.04142584    -1.10400
O486        O  0.83300829  0.63634686  0.05539529    -0.67000
Ni487      Ni  0.86357941  0.64032584  0.05251127     1.26300
O488        O  0.90096238  0.62013150  0.98743588    -0.67200
O489        O  0.86492468  0.63739332  0.10691377    -0.79500
C490        C  0.87093168  0.68084349  0.04555317     0.83900
O491        O  0.85816473  0.66823507  0.06018953    -0.66700
Ni492      Ni  0.85577776  0.59256533  0.06469008     1.27400
Ni493      Ni  0.87084309  0.61510403  0.98723614     1.26100
H494        H  0.84768001  0.64281318  0.99127321     0.38400
O495        O  0.87267475  0.67485903  0.50680564    -0.81500
O496        O  0.87762276  0.58028682  0.47894136    -0.66200
O497        O  0.86170144  0.63503936  0.49635223    -1.12800
C498        C  0.86667434  0.61755957  0.62635332     1.05400
O499        O  0.85452686  0.56995442  0.52257921    -0.79400
O500        O  0.83123275  0.59624002  0.56417319    -0.67000
Ni501      Ni  0.87882164  0.65419615  0.47018063     1.34900
C502        C  0.82339880  0.61347345  0.56172587     0.84100
O503        O  0.86585338  0.61024255  0.43311066    -0.79900
O504        O  0.88612978  0.63686301  0.42801162    -0.90200
C505        C  0.86712109  0.56629089  0.49454067     0.83700
O506        O  0.90286591  0.64573602  0.49734258    -0.68400
O507        O  0.86325761  0.59995980  0.61441620    -0.87700
C508        C  0.91095899  0.62854953  0.49368099     0.84500
C509        C  0.87490968  0.62340529  0.41291682     1.06100
H510        H  0.88812278  0.60613438  0.54588892     0.37900
O511        O  0.87312732  0.60725370  0.54019105    -1.10400
O512        O  0.83476376  0.62896303  0.55692805    -0.67000
Ni513      Ni  0.86494443  0.63428290  0.55059937     1.26300
O514        O  0.90037948  0.61368087  0.48147495    -0.67200
O515        O  0.86850041  0.63237972  0.60443365    -0.79500
C516        C  0.86366435  0.67687941  0.53932226     0.83900
O517        O  0.85806059  0.66202886  0.55929881    -0.66700
Ni518      Ni  0.85939599  0.58631674  0.56704836     1.27400
Ni519      Ni  0.86999637  0.60795802  0.48657105     1.26100
H520        H  0.84658059  0.63686082  0.48989614     0.38400
O521        O  0.61008515  0.68351383  0.15379572    -0.81500
O522        O  0.61155343  0.59152055  0.19076305    -0.66200
O523        O  0.62576954  0.64562378  0.16938717    -1.12800
C524        C  0.61599092  0.62371910  0.04082987     1.05400
O525        O  0.63364464  0.58099991  0.14534319    -0.79400
O526        O  0.65372171  0.60513903  0.09505473    -0.67000
Ni527      Ni  0.61068706  0.66610856  0.19639983     1.34900
C528        C  0.66190661  0.62226578  0.09870306     0.84100
O529        O  0.62381731  0.62186711  0.23440582    -0.79900
O530        O  0.60994578  0.65195957  0.24350848    -0.90200
C531        C  0.62162828  0.57752009  0.17401535     0.83700
O532        O  0.58343775  0.65632254  0.18357045    -0.68400
O533        O  0.61799245  0.60627469  0.05352742    -0.87700
C534        C  0.57603585  0.63903396  0.18855108     0.84500
C535        C  0.61689148  0.63570504  0.25615130     1.06100
H536        H  0.59789220  0.61567648  0.12487252     0.37900
O537        O  0.61305127  0.61667115  0.12836589    -1.10400
O538        O  0.65118827  0.63756386  0.10814751    -0.67000
Ni539      Ni  0.62133051  0.64307108  0.11558609     1.26300
O540        O  0.58798767  0.62391465  0.19184121    -0.67200
O541        O  0.61686146  0.63931413  0.06181741    -0.79500
C542        C  0.61973138  0.68499622  0.12180722     0.83900
O543        O  0.62853464  0.67022666  0.10513782    -0.66700
Ni544      Ni  0.62546585  0.59488564  0.10069028     1.27400
Ni545      Ni  0.61816694  0.61883506  0.18154573     1.26100
H546        H  0.64073425  0.64744666  0.17400694     0.38400
O547        O  0.60994173  0.68065842  0.65060480    -0.81500
O548        O  0.61312014  0.58944453  0.69063575    -0.66200
O549        O  0.62635511  0.64349450  0.66926135    -1.12800
C550        C  0.61716947  0.62134354  0.54082170     1.05400
O551        O  0.63500690  0.57899454  0.64475951    -0.79400
O552        O  0.65411335  0.60218490  0.59272468    -0.67000
Ni553      Ni  0.60922014  0.66339261  0.69365329     1.34900
C554        C  0.66335576  0.61859758  0.59902869     0.84100
O555        O  0.62408525  0.62034198  0.73399187    -0.79900
O556        O  0.60718142  0.64923308  0.74100050    -0.90200
C557        C  0.62374466  0.57567354  0.67443038     0.83700
O558        O  0.58326742  0.65240197  0.67637096    -0.68400
O559        O  0.61746882  0.60377529  0.55356615    -0.87700
C560        C  0.57636854  0.63512088  0.68303854     0.84500
C561        C  0.61564066  0.63385448  0.75481910     1.06100
H562        H  0.59919051  0.61392239  0.62402377     0.37900
O563        O  0.61433031  0.61444641  0.62794521    -1.10400
O564        O  0.65340022  0.63408108  0.61042066    -0.67000
Ni565      Ni  0.62346417  0.64055944  0.61543849     1.26300
O566        O  0.58873880  0.62084476  0.69039767    -0.67200
O567        O  0.62004114  0.63677036  0.56155327    -0.79500
C568        C  0.62172457  0.68219100  0.62092333     0.83900
O569        O  0.63149701  0.66750350  0.60583402    -0.66700
Ni570      Ni  0.62587306  0.59243415  0.60028573     1.27400
Ni571      Ni  0.61908594  0.61672119  0.68117215     1.26100
H572        H  0.64104812  0.64589806  0.67532137     0.38400
O573        O  0.61159130  0.32977676  0.28239591    -0.81500
O574        O  0.61149689  0.42275989  0.25337376    -0.66200
O575        O  0.62548206  0.36825863  0.26818192    -1.12800
C576        C  0.62134689  0.38803015  0.39934069     1.05400
O577        O  0.63535408  0.43278692  0.29420171    -0.79400
O578        O  0.65711319  0.40723766  0.33680674    -0.67000
Ni579      Ni  0.60826550  0.34893269  0.24340558     1.34900
C580        C  0.66452298  0.39005026  0.32984634     0.84100
O581        O  0.62186682  0.39270425  0.20618675    -0.79900
O582        O  0.60318666  0.36494022  0.19947066    -0.90200
C583        C  0.62261050  0.43650881  0.26780488     0.83700
O584        O  0.58366586  0.35847984  0.26926757    -0.68400
O585        O  0.62356943  0.40567351  0.38750090    -0.87700
C586        C  0.57623348  0.37585959  0.26802609     0.84500
C587        C  0.61279604  0.37985948  0.18553344     1.06100
H588        H  0.60016868  0.39800453  0.32083814     0.37900
O589        O  0.61505269  0.39677973  0.31373567    -1.10400
O590        O  0.65300983  0.37498721  0.32344992    -0.67000
Ni591      Ni  0.62307759  0.36997647  0.32279941     1.26300
O592        O  0.58745033  0.39063917  0.25723265    -0.67200
O593        O  0.62095089  0.37281620  0.37735795    -0.79500
C594        C  0.62149510  0.32796870  0.31313321     0.83900
O595        O  0.63002810  0.34258413  0.33008926    -0.66700
Ni596      Ni  0.62906094  0.41795148  0.33957400     1.27400
Ni597      Ni  0.61802901  0.39530197  0.25980588     1.26100
H598        H  0.64010180  0.36617445  0.25998926     0.38400
O599        O  0.60645384  0.33497889  0.79488481    -0.81500
O600        O  0.61492045  0.42234450  0.75625093    -0.66200
O601        O  0.62903493  0.36808065  0.77095824    -1.12800
C602        C  0.62830172  0.38811025  0.90075810     1.05400
O603        O  0.64122323  0.43152077  0.79293777    -0.79400
O604        O  0.66429365  0.40602475  0.83228159    -0.67000
Ni605      Ni  0.61328773  0.34747343  0.74748362     1.34900
C606        C  0.67123098  0.38850188  0.82778676     0.84100
O607        O  0.62143059  0.39162894  0.70733552    -0.79900
O608        O  0.61907429  0.35859950  0.69868547    -0.90200
C609        C  0.62700933  0.43575229  0.76939925     0.83700
O610        O  0.58569716  0.35908781  0.74941729    -0.68400
O611        O  0.63287239  0.40523271  0.88794331    -0.87700
C612        C  0.57862349  0.37613318  0.75830304     0.84500
C613        C  0.62093472  0.37613964  0.68593302     1.06100
H614        H  0.60650111  0.39850423  0.82541727     0.37900
O615        O  0.62099067  0.39669028  0.81627093    -1.10400
O616        O  0.65891940  0.37347189  0.82543882    -0.67000
Ni617      Ni  0.62815071  0.36970892  0.82528351     1.26300
O618        O  0.59074611  0.39079391  0.76497266    -0.67200
O619        O  0.62623047  0.37271691  0.87963352    -0.79500
C620        C  0.62033017  0.32928708  0.81783520     0.83900
O621        O  0.63349037  0.34177436  0.83111278    -0.66700
Ni622      Ni  0.63676139  0.41733140  0.83939753     1.27400
Ni623      Ni  0.62118752  0.39483041  0.76203224     1.26100
H624        H  0.64364900  0.36649066  0.76231726     0.38400
O625        O  0.17511325  0.61334378  0.07478697    -0.81500
O626        O  0.07955513  0.61960140  0.03570237    -0.66200
O627        O  0.13796783  0.63156049  0.05060610    -1.12800
C628        C  0.11551647  0.63388633  0.18114671     1.05400
O629        O  0.06989252  0.64448483  0.07372474    -0.79400
O630        O  0.09652037  0.66574744  0.11677258    -0.67000
Ni631      Ni  0.15995196  0.61571131  0.02813205     1.34900
C632        C  0.11492301  0.67245320  0.10836014     0.84100
O633        O  0.11270386  0.62537346  0.98764813    -0.79900
O634        O  0.14714554  0.61710636  0.97906648    -0.90200
C635        C  0.06568225  0.63194506  0.04768508     0.83700
O636        O  0.14757892  0.59032664  0.03691832    -0.68400
O637        O  0.09668762  0.63576869  0.16898836    -0.87700
C638        C  0.12852062  0.58410018  0.03888204     0.84500
C639        C  0.12891412  0.62145007  0.96630372     1.06100
H640        H  0.10521627  0.61140032  0.10452881     0.37900
O641        O  0.10681355  0.62488090  0.09606242    -1.10400
O642        O  0.13086231  0.66112371  0.10219809    -0.67000
Ni643      Ni  0.13545603  0.63271893  0.10473228     1.26300
O644        O  0.11262545  0.59587449  0.04052756    -0.67200
O645        O  0.13204593  0.63327105  0.15928375    -0.79500
C646        C  0.17890625  0.62662590  0.09972887     0.83900
O647        O  0.16474997  0.63894400  0.11047918    -0.66700
Ni648      Ni  0.08443217  0.63974278  0.12027505     1.27400
Ni649      Ni  0.10912502  0.62468046  0.04181328     1.26100
H650        H  0.14021762  0.64479623  0.04123004     0.38400
O651        O  0.17658303  0.61340430  0.57407299    -0.81500
O652        O  0.08084529  0.61692717  0.53665755    -0.66200
O653        O  0.13891854  0.63132742  0.55073069    -1.12800
C654        C  0.11614675  0.63192826  0.68105214     1.05400
O655        O  0.07224850  0.64291907  0.57224488    -0.79400
O656        O  0.09716703  0.66446112  0.61822051    -0.67000
Ni657      Ni  0.16177274  0.61702524  0.52725975     1.34900
C658        C  0.11552886  0.67150367  0.61076607     0.84100
O659        O  0.11382575  0.62342957  0.48768412    -0.79900
O660        O  0.14918187  0.61978534  0.47833342    -0.90200
C661        C  0.06700034  0.62920248  0.54922902     0.83700
O662        O  0.15044008  0.59100547  0.53216008    -0.68400
O663        O  0.09734573  0.63390039  0.66866899    -0.87700
C664        C  0.13196627  0.58378348  0.53740690     0.84500
C665        C  0.13041268  0.62214889  0.46602196     1.06100
H666        H  0.10681224  0.61026673  0.60499600     0.37900
O667        O  0.10819720  0.62370775  0.59621083    -1.10400
O668        O  0.13156767  0.66040231  0.60372034    -0.67000
Ni669      Ni  0.13653407  0.63196355  0.60493545     1.26300
O670        O  0.11546076  0.59462795  0.54219413    -0.67200
O671        O  0.13286554  0.63183779  0.65949773    -0.79500
C672        C  0.18001773  0.62616742  0.60016644     0.83900
O673        O  0.16576351  0.63840396  0.61091407    -0.66700
Ni674      Ni  0.08555635  0.63821205  0.61976706     1.27400
Ni675      Ni  0.11038635  0.62315429  0.54203198     1.26100
H676        H  0.14028897  0.64475046  0.54183878     0.38400
O677        O  0.14106788  0.43282947  0.44557758    -0.81500
O678        O  0.13562219  0.34168831  0.40900691    -0.66200
O679        O  0.12132675  0.39670383  0.42624600    -1.12800
C680        C  0.12799194  0.37893004  0.55616093     1.05400
O681        O  0.11180606  0.33369010  0.45291686    -0.79400
O682        O  0.09144127  0.35837015  0.50090249    -0.67000
Ni683      Ni  0.13608329  0.41729515  0.40036072     1.34900
C684        C  0.08286552  0.37479179  0.49338793     0.84100
O685        O  0.12576853  0.37164668  0.36180259    -0.79900
O686        O  0.13238573  0.40400747  0.35251930    -0.90200
C687        C  0.12457246  0.32854278  0.42610458     0.83700
O688        O  0.16386174  0.40680565  0.40431795    -0.68400
O689        O  0.12671872  0.36103822  0.54439046    -0.87700
C690        C  0.17110494  0.38936671  0.40620231     0.84500
C691        C  0.12835062  0.38658078  0.34016191     1.06100
H692        H  0.14738671  0.36859537  0.47497071     0.37900
O693        O  0.13238590  0.36922561  0.46982450    -1.10400
O694        O  0.09356645  0.39015998  0.48445788    -0.67000
Ni695      Ni  0.12366477  0.39593710  0.48032109     1.26300
O696        O  0.15931088  0.37412162  0.40930696    -0.67200
O697        O  0.12630970  0.39390517  0.53459670    -0.79500
C698        C  0.12820565  0.43705418  0.47288788     0.83900
O699        O  0.11647981  0.42361589  0.48756485    -0.66700
Ni700      Ni  0.11964485  0.34825790  0.49764552     1.27400
Ni701      Ni  0.12913304  0.36962614  0.41586530     1.26100
H702        H  0.10652146  0.39808813  0.42010980     0.38400
O703        O  0.13809652  0.43150010  0.95479180    -0.81500
O704        O  0.13206634  0.34290434  0.90579298    -0.66200
O705        O  0.11792165  0.39754978  0.92682274    -1.12800
C706        C  0.11524936  0.37516031  0.05455492     1.05400
O707        O  0.10454254  0.33400382  0.94171336    -0.79400
O708        O  0.08169361  0.35816339  0.98847458    -0.67000
Ni709      Ni  0.13399873  0.41878934  0.90622181     1.34900
C710        C  0.07442206  0.37534330  0.98270486     0.84100
O711        O  0.12632265  0.37485299  0.86083361    -0.79900
O712        O  0.13099894  0.40787930  0.85615408    -0.90200
C713        C  0.11899297  0.32963379  0.91710091     0.83700
O714        O  0.16154287  0.40744029  0.90919554    -0.68400
O715        O  0.11339799  0.35780377  0.04008925    -0.87700
C716        C  0.16863732  0.38995720  0.91188473     0.84500
C717        C  0.12861540  0.39064900  0.84142556     1.06100
H718        H  0.13948053  0.36684101  0.97726623     0.37900
O719        O  0.12507679  0.36833375  0.96883061    -1.10400
O720        O  0.08629267  0.39050897  0.97835266    -0.67000
Ni721      Ni  0.11667273  0.39505957  0.98082545     1.26300
O722        O  0.15652437  0.37486491  0.91519701    -0.67200
O723        O  0.11583792  0.39098909  0.03492103    -0.79500
C724        C  0.12331893  0.43622912  0.97846733     0.83900
O725        O  0.11019559  0.42297278  0.98981213    -0.66700
Ni726      Ni  0.10938730  0.34691469  0.99015621     1.27400
Ni727      Ni  0.12592592  0.37077970  0.91480425     1.26100
H728        H  0.10363526  0.39928090  0.91798750     0.38400
O729        O  0.36681206  0.43361094  0.36239836    -0.81500
O730        O  0.36488813  0.34034358  0.39273041    -0.66200
O731        O  0.38006402  0.39472069  0.37521439    -1.12800
C732        C  0.37314052  0.37395924  0.24551921     1.05400
O733        O  0.38922451  0.33074126  0.35056430    -0.79400
O734        O  0.40985481  0.35510692  0.30289800    -0.67000
Ni735      Ni  0.36376976  0.41450070  0.40217474     1.34900
C736        C  0.41780504  0.37219766  0.30777521     0.84100
O737        O  0.37666077  0.37032375  0.43822513    -0.79900
O738        O  0.35947720  0.39881349  0.44736075    -0.90200
C739        C  0.37619527  0.32674044  0.37746826     0.83700
O740        O  0.33801086  0.40523528  0.38130398    -0.68400
O741        O  0.37534288  0.35637608  0.25763559    -0.87700
C742        C  0.33032444  0.38795818  0.38509464     0.84500
C743        C  0.36809376  0.38327485  0.46001237     1.06100
H744        H  0.35340419  0.36500879  0.32691295     0.37900
O745        O  0.36840027  0.36614753  0.33189930    -1.10400
O746        O  0.40666091  0.38749381  0.31536822    -0.67000
Ni747      Ni  0.37669166  0.39275946  0.32098846     1.26300
O748        O  0.34185086  0.37301299  0.39236814    -0.67200
O749        O  0.37343959  0.38941099  0.26696764    -0.79500
C750        C  0.37642137  0.43516266  0.33035992     0.83900
O751        O  0.38376801  0.42014665  0.31209137    -0.66700
Ni752      Ni  0.38180075  0.34462570  0.30519705     1.27400
Ni753      Ni  0.37211815  0.36777117  0.38521675     1.26100
H754        H  0.39486569  0.39658267  0.38111730     0.38400
O755        O  0.36359649  0.43216233  0.85408087    -0.81500
O756        O  0.36320291  0.34058023  0.89188906    -0.66200
O757        O  0.37969925  0.39461350  0.87405385    -1.12800
C758        C  0.37764240  0.37276603  0.74478767     1.05400
O759        O  0.38953020  0.33070821  0.85390259    -0.79400
O760        O  0.41297487  0.35466313  0.80895185    -0.67000
Ni761      Ni  0.36387805  0.41569135  0.89832404     1.34900
C762        C  0.42036637  0.37211309  0.81132388     0.84100
O763        O  0.37264270  0.37091263  0.93865042    -0.79900
O764        O  0.36317258  0.40263328  0.94656382    -0.90200
C765        C  0.37506488  0.32687123  0.87854457     0.83700
O766        O  0.33640663  0.40576058  0.88595735    -0.68400
O767        O  0.38098884  0.35556957  0.75800217    -0.87700
C768        C  0.32895364  0.38825147  0.88550626     0.84500
C769        C  0.36785672  0.38577975  0.95978500     1.06100
H770        H  0.35511675  0.36423044  0.82356863     0.37900
O771        O  0.36978646  0.36564208  0.83071149    -1.10400
O772        O  0.40856646  0.38725654  0.81603827    -0.67000
Ni773      Ni  0.37830588  0.39212337  0.81968855     1.26300
O774        O  0.34064605  0.37295735  0.88740191    -0.67200
O775        O  0.37616916  0.38841087  0.76557838    -0.79500
C776        C  0.37662614  0.43400219  0.82615289     0.83900
O777        O  0.38601957  0.41915806  0.81103841    -0.66700
Ni778      Ni  0.38485390  0.34417548  0.80693375     1.27400
Ni779      Ni  0.37093256  0.36786704  0.88463645     1.26100
H780        H  0.39435740  0.39609835  0.88118556     0.38400
O781        O  0.36725045  0.57504040  0.19434669    -0.81500
O782        O  0.36480588  0.66779914  0.15953923    -0.66200
O783        O  0.37984824  0.61412773  0.18001979    -1.12800
C784        C  0.37806830  0.63263557  0.30840377     1.05400
O785        O  0.37555056  0.68262535  0.21268222    -0.79400
O786        O  0.40737092  0.65585427  0.22705414    -0.67000
Ni787      Ni  0.36369554  0.59404904  0.15467431     1.34900
C788        C  0.41609343  0.63893525  0.22977710     0.84100
O789        O  0.37784656  0.63730109  0.11613476    -0.79900
O790        O  0.35933158  0.60944207  0.10952040    -0.90200
C791        C  0.36809934  0.68323814  0.17957645     0.83700
O792        O  0.33770066  0.60338192  0.17752765    -0.68400
O793        O  0.38702777  0.64779740  0.29434175    -0.87700
C794        C  0.33021108  0.62059262  0.17244361     0.84500
C795        C  0.36919202  0.62418881  0.09532435     1.06100
H796        H  0.35142753  0.64404936  0.22922592     0.37900
O797        O  0.36648119  0.64282089  0.22355833    -1.10400
O798        O  0.40542148  0.62330610  0.23808412    -0.67000
Ni799      Ni  0.37533076  0.61639117  0.23393452     1.26300
O800        O  0.34206437  0.63520699  0.16325384    -0.67200
O801        O  0.37005356  0.61928553  0.28750439    -0.79500
C802        C  0.37702409  0.57417861  0.22547395     0.83900
O803        O  0.38343388  0.58957142  0.24296422    -0.66700
Ni804      Ni  0.38099730  0.66335862  0.25061481     1.27400
Ni805      Ni  0.37202162  0.64076054  0.16947581     1.26100
H806        H  0.39474374  0.61220970  0.17360664     0.38400
O807        O  0.36542940  0.57423393  0.69564834    -0.81500
O808        O  0.36685115  0.66664685  0.66060863    -0.66200
O809        O  0.38052491  0.61251522  0.67941061    -1.12800
C810        C  0.38112083  0.63015606  0.80796259     1.05400
O811        O  0.37710098  0.68115441  0.71440368    -0.79400
O812        O  0.40907298  0.65372580  0.72439391    -0.67000
Ni813      Ni  0.36407423  0.59257655  0.65449239     1.34900
C814        C  0.41763706  0.63666340  0.72572664     0.84100
O815        O  0.37833769  0.63634750  0.61630750    -0.79900
O816        O  0.36157597  0.60751081  0.60848322    -0.90200
C817        C  0.37013120  0.68197190  0.68091903     0.83700
O818        O  0.33785491  0.60253031  0.67483968    -0.68400
O819        O  0.39061570  0.64496154  0.79345235    -0.87700
C820        C  0.33079034  0.62001055  0.67187434     0.84500
C821        C  0.37030707  0.62304977  0.59512383     1.06100
H822        H  0.35323490  0.64237254  0.73051073     0.37900
O823        O  0.36821011  0.64105617  0.72419619    -1.10400
O824        O  0.40714946  0.62121978  0.73571902    -0.67000
Ni825      Ni  0.37705943  0.61441924  0.73333507     1.26300
O826        O  0.34291647  0.63468520  0.66428651    -0.67200
O827        O  0.37273011  0.61692729  0.78725179    -0.79500
C828        C  0.37716587  0.57251975  0.72426209     0.83900
O829        O  0.38545531  0.58747585  0.74050934    -0.66700
Ni830      Ni  0.38350748  0.66123276  0.75096815     1.27400
Ni831      Ni  0.37316369  0.63936763  0.66982269     1.26100
H832        H  0.39529624  0.61045010  0.67222539     0.38400
C833        C  0.35829033  0.61532478  0.99082928    -0.11400
C834        C  0.37428179  0.62670059  0.97285588     0.05700
C835        C  0.38808686  0.63783165  0.99577957    -0.10200
C836        C  0.38602804  0.63752828  0.03544423    -0.11900
C837        C  0.37030300  0.62587787  0.05330114    -0.01600
C838        C  0.35639652  0.61484416  0.03049238    -0.10800
C839        C  0.37643766  0.62717597  0.93049182     0.05700
H840        H  0.40082424  0.64651785  0.98311456     0.07600
H841        H  0.39714677  0.64599779  0.05215546     0.11100
H842        H  0.34401217  0.60577825  0.04332742     0.11400
H843        H  0.34709044  0.60688376  0.97426538     0.07700
C844        C  0.37235657  0.61024983  0.90791142    -0.11500
C845        C  0.37407867  0.61099313  0.86814229    -0.10700
C846        C  0.38013577  0.62862328  0.85004514    -0.01700
C847        C  0.38444021  0.64541799  0.87264047    -0.11800
C848        C  0.38249843  0.64474226  0.91217995    -0.10200
H849        H  0.36796950  0.59636145  0.92095332     0.07700
H850        H  0.37070032  0.59778234  0.85158872     0.11400
H851        H  0.38886354  0.65933559  0.85970761     0.11100
H852        H  0.38533862  0.65818524  0.92835351     0.07700
C853        C  0.38063598  0.64638348  0.41269910    -0.11400
C854        C  0.37505625  0.62858206  0.43063860     0.05700
C855        C  0.37084635  0.61181549  0.40765654    -0.10200
C856        C  0.37184268  0.61296414  0.36796116    -0.11900
C857        C  0.37742792  0.63080835  0.35031253    -0.01600
C858        C  0.38198750  0.64742425  0.37320318    -0.10800
C859        C  0.37348351  0.62764351  0.47299709     0.05700
H860        H  0.36694447  0.59770221  0.42023741     0.07600
H861        H  0.36836552  0.59987413  0.35112179     0.11100
H862        H  0.38617254  0.66148015  0.36057988     0.11400
H863        H  0.38354291  0.65974317  0.42905773     0.07700
C864        C  0.38659411  0.63952663  0.49594531    -0.11500
C865        C  0.38513668  0.63855833  0.53559389    -0.10700
C866        C  0.37083769  0.62540918  0.55331549    -0.01700
C867        C  0.35758357  0.61370282  0.53052620    -0.11800
C868        C  0.35875799  0.61491977  0.49098309    -0.10200
H869        H  0.39839621  0.64929257  0.48338993     0.07700
H870        H  0.39565259  0.64768179  0.55233085     0.11400
H871        H  0.34621729  0.60354512  0.54328077     0.11100
H872        H  0.34796522  0.60593374  0.47460009     0.07700
C873        C  0.37829985  0.48996103  0.81980810    -0.11400
C874        C  0.38507309  0.49290393  0.78205636     0.05700
C875        C  0.39005606  0.47622482  0.75910168    -0.10200
C876        C  0.38785146  0.45702463  0.77344571    -0.11900
C877        C  0.38024634  0.45413651  0.81081053    -0.01600
C878        C  0.37578577  0.47084463  0.83391039    -0.10800
C879        C  0.38510547  0.51320388  0.76610927     0.05700
H880        H  0.39543831  0.47804640  0.72992397     0.07600
H881        H  0.39152610  0.44446008  0.75503359     0.11100
H882        H  0.37014622  0.46914423  0.86297971     0.11400
H883        H  0.37412895  0.50245274  0.83807526     0.07700
C884        C  0.37587939  0.51650777  0.73095947    -0.11500
C885        C  0.37360753  0.53571113  0.71751638    -0.10700
C886        C  0.38062900  0.55220785  0.73870227    -0.01700
C887        C  0.39059155  0.54890008  0.77329235    -0.11800
C888        C  0.39269622  0.52959081  0.78695488    -0.10200
H889        H  0.36965205  0.50426599  0.71443760     0.07700
H890        H  0.36602669  0.53760976  0.69057186     0.11400
H891        H  0.39634095  0.56122658  0.79014541     0.11100
H892        H  0.40004447  0.52746651  0.81404298     0.07700
C893        C  0.35445920  0.38939793  0.56482483    -0.11400
C894        C  0.36945206  0.37699457  0.58132646     0.05700
C895        C  0.38320538  0.36579549  0.55733785    -0.10200
C896        C  0.38233838  0.36735798  0.51789173    -0.11900
C897        C  0.36786022  0.38031025  0.50154330    -0.01600
C898        C  0.35374829  0.39111651  0.52541308    -0.10800
C899        C  0.37106918  0.37603260  0.62332786     0.05700
H900        H  0.39510673  0.35624632  0.56903328     0.07600
H901        H  0.39346918  0.35889972  0.50024324     0.11100
H902        H  0.34220769  0.40102419  0.51362261     0.11400
H903        H  0.34329612  0.39785065  0.58239264     0.07700
C904        C  0.36850025  0.39313124  0.64632063    -0.11500
C905        C  0.37061757  0.39223031  0.68575150    -0.10700
C906        C  0.37534617  0.37419325  0.70304399    -0.01700
C907        C  0.37778004  0.35712812  0.67995538    -0.11800
C908        C  0.37563267  0.35802777  0.64073113    -0.10200
H909        H  0.36524979  0.40730985  0.63377756     0.07700
H910        H  0.36863322  0.40565122  0.70261761     0.11400
H911        H  0.38135351  0.34293233  0.69215375     0.11100
H912        H  0.37737331  0.34452010  0.62406017     0.07700
C913        C  0.37454244  0.36462615  0.05834373    -0.11400
C914        C  0.36825230  0.38066938  0.08196211     0.05700
C915        C  0.36144440  0.39815518  0.06496409    -0.10200
C916        C  0.36117954  0.39967635  0.02547205    -0.11900
C917        C  0.36768361  0.38373253  0.00178440    -0.01600
C918        C  0.37423263  0.36612732  0.01874319    -0.10800
C919        C  0.36884538  0.37923668  0.12410427     0.05700
H920        H  0.35611414  0.41066051  0.08221157     0.07600
H921        H  0.35586541  0.41343567  0.01352629     0.11100
H922        H  0.37936475  0.35357167  0.00143649     0.11400
H923        H  0.38010471  0.35099987  0.07045164     0.07700
C924        C  0.36312524  0.36154149  0.14225478    -0.11500
C925        C  0.36409272  0.36003397  0.18167933    -0.10700
C926        C  0.37063489  0.37623232  0.20407494    -0.01700
C927        C  0.37600989  0.39405190  0.18610601    -0.11800
C928        C  0.37521488  0.39551110  0.14655848    -0.10200
H929        H  0.35778267  0.34884156  0.12599234     0.07700
H930        H  0.35974945  0.34610428  0.19465047     0.11400
H931        H  0.38141028  0.40669160  0.20250032     0.11100
H932        H  0.38005274  0.40927373  0.13349442     0.07700
C933        C  0.37030892  0.49086851  0.31968308    -0.11400
C934        C  0.38249310  0.49484698  0.28668480     0.05700
C935        C  0.39286617  0.47884608  0.26789570    -0.10200
C936        C  0.39095331  0.45944127  0.28164876    -0.11900
C937        C  0.37869955  0.45555124  0.31466165    -0.01600
C938        C  0.36847714  0.47160359  0.33344134    -0.10800
C939        C  0.38333885  0.51541073  0.27117135     0.05700
H940        H  0.40258052  0.48131563  0.24259944     0.07600
H941        H  0.39912840  0.44752307  0.26653330     0.11100
H942        H  0.35876753  0.46930491  0.35882461     0.11400
H943        H  0.36168170  0.50259467  0.33453313     0.07700
C944        C  0.38304657  0.51843125  0.23179937    -0.11500
C945        C  0.38160733  0.53753538  0.21721608    -0.10700
C946        C  0.38060006  0.55423262  0.24148898    -0.01700
C947        C  0.38188324  0.55140848  0.28077084    -0.11800
C948        C  0.38312964  0.53222268  0.29545296    -0.10200
H949        H  0.38301931  0.50597801  0.21214869     0.07700
H950        H  0.38089007  0.53922093  0.18676093     0.11400
H951        H  0.38118332  0.56396912  0.30019940     0.11100
H952        H  0.38369774  0.53055886  0.32590916     0.07700
C953        C  0.27085554  0.39994334  0.87193539    -0.11400
C954        C  0.26046552  0.38386067  0.88950341     0.05700
C955        C  0.27295215  0.36797210  0.90160132    -0.10200
C956        C  0.29526653  0.36886138  0.89856530    -0.11900
C957        C  0.30552209  0.38574064  0.88378132    -0.01600
C958        C  0.29302522  0.40098154  0.86955386    -0.10800
C959        C  0.23695174  0.38462087  0.89726661     0.05700
H960        H  0.26558371  0.35529939  0.91509362     0.07600
H961        H  0.30448914  0.35679802  0.90954971     0.11100
H962        H  0.30041383  0.41396897  0.85718948     0.11400
H963        H  0.26184134  0.41208861  0.86078433     0.07700
C964        C  0.22726736  0.40287746  0.90634524    -0.11500
C965        C  0.20531794  0.40430450  0.91220475    -0.10700
C966        C  0.19218741  0.38748578  0.90968936    -0.01700
C967        C  0.20181214  0.36898997  0.90221073    -0.11800
C968        C  0.22397683  0.36757064  0.89601436    -0.10200
H969        H  0.23667182  0.41624498  0.90901844     0.07700
H970        H  0.19860360  0.41878356  0.91832242     0.11400
H971        H  0.19216968  0.35574064  0.89994792     0.11100
H972        H  0.23083321  0.35323830  0.88919286     0.07700
C973        C  0.12585716  0.40168907  0.65514539    -0.11400
C974        C  0.13209957  0.38559418  0.67722297     0.05700
C975        C  0.13876278  0.36805843  0.65879067    -0.10200
C976        C  0.13819630  0.36627646  0.61937606    -0.11900
C977        C  0.13104864  0.38202236  0.59733865    -0.01600
C978        C  0.12538978  0.39993881  0.61554132    -0.10800
C979        C  0.13111235  0.38682467  0.71932158     0.05700
H980        H  0.14419840  0.35559564  0.67490296     0.07600
H981        H  0.14299389  0.35235954  0.60618824     0.11100
H982        H  0.11977296  0.41230287  0.59935339     0.11400
H983        H  0.12055724  0.41538866  0.66855116     0.07700
C984        C  0.13723078  0.40423064  0.73829211    -0.11500
C985        C  0.13615558  0.40543984  0.77782977    -0.10700
C986        C  0.12903447  0.38922919  0.79944690    -0.01700
C987        C  0.12289121  0.37179273  0.78052067    -0.11800
C988        C  0.12386332  0.37062682  0.74085788    -0.10200
H989        H  0.14315444  0.41684824  0.72258049     0.07700
H990        H  0.14122392  0.41905719  0.79146279     0.11400
H991        H  0.11724355  0.35909671  0.79631452     0.11100
H992        H  0.11869327  0.35710613  0.72701144     0.07700
C993        C  0.11726872  0.36487348  0.24227021    -0.11400
C994        C  0.12320123  0.38066808  0.21840864     0.05700
C995        C  0.13140356  0.39797520  0.23512411    -0.10200
C996        C  0.13307229  0.39969673  0.27441358    -0.11900
C997        C  0.12683653  0.38408023  0.29834068    -0.01600
C998        C  0.11918368  0.36652024  0.28176182    -0.10800
C999        C  0.12086404  0.37924943  0.17636651     0.05700
H1000       H  0.13675315  0.41023748  0.21786224     0.07600
H1001       H  0.13937761  0.41336684  0.28600432     0.11100
H1002       H  0.11431523  0.35419501  0.29931122     0.11400
H1003       H  0.11069652  0.35135311  0.23059106     0.07700
C1004       C  0.12368741  0.36108891  0.15696107    -0.11500
C1005       C  0.12164038  0.35980991  0.11761162    -0.10700
C1006       C  0.11701114  0.37670382  0.09641966    -0.01700
C1007       C  0.11422332  0.39488244  0.11565173    -0.11800
C1008       C  0.11596114  0.39611220  0.15513396    -0.10200
H1009       H  0.12786695  0.34785720  0.17201698     0.07700
H1010       H  0.12404462  0.34556562  0.10370808     0.11400
H1011       H  0.11046966  0.40813497  0.10024955     0.11100
H1012       H  0.11320008  0.41029617  0.16900869     0.07700
C1013       C  0.22947468  0.40188382  0.40829035    -0.11400
C1014       C  0.23895469  0.38436143  0.39441014     0.05700
C1015       C  0.22603549  0.36786403  0.38663461    -0.10200
C1016       C  0.20388707  0.36917204  0.39145416    -0.11900
C1017       C  0.19443139  0.38700038  0.40409639    -0.01600
C1018       C  0.20749468  0.40321073  0.41297004    -0.10800
C1019       C  0.26226672  0.38377185  0.38778497     0.05700
H1020       H  0.23301405  0.35419898  0.37585930     0.07600
H1021       H  0.19415224  0.35648709  0.38422606     0.11100
H1022       H  0.20069684  0.41705229  0.42327176     0.11400
H1023       H  0.23911339  0.41465958  0.41537369     0.07700
C1024       C  0.27259232  0.39984170  0.37037582    -0.11500
C1025       C  0.29471163  0.40073311  0.36805519    -0.10700
C1026       C  0.30702799  0.38552356  0.38297894    -0.01700
C1027       C  0.29671676  0.36886883  0.39846470    -0.11800
C1028       C  0.27447255  0.36800586  0.40086440    -0.10200
H1029       H  0.26351061  0.41199219  0.35934973     0.07700
H1030       H  0.30217214  0.41362432  0.35545856     0.11400
H1031       H  0.30581376  0.35693426  0.41022510     0.11100
H1032       H  0.26685310  0.35548033  0.41447655     0.07700
C1033       C  0.22790385  0.64257968  0.65595894    -0.11400
C1034       C  0.24099429  0.62576422  0.65272938     0.05700
C1035       C  0.23349760  0.60897116  0.63316962    -0.10200
C1036       C  0.21363855  0.60910404  0.61649676    -0.11900
C1037       C  0.20067056  0.62597392  0.61923734    -0.01600
C1038       C  0.20785218  0.64263447  0.63955767    -0.10800
C1039       C  0.26315179  0.62603593  0.66631152     0.05700
H1040       H  0.24333801  0.59592130  0.62945401     0.07600
H1041       H  0.20852011  0.59601361  0.60112459     0.11100
H1042       H  0.19818990  0.65586164  0.64199088     0.11400
H1043       H  0.23325346  0.65572997  0.67084912     0.07700
C1044       C  0.27641193  0.64245103  0.65939148    -0.11500
C1045       C  0.29839718  0.64100402  0.66377708    -0.10700
C1046       C  0.30749022  0.62309050  0.67501589    -0.01700
C1047       C  0.29396845  0.60740828  0.68569907    -0.11800
C1048       C  0.27202497  0.60889333  0.68149062    -0.10200
H1049       H  0.27005151  0.65590643  0.64784742     0.07700
H1050       H  0.30835367  0.65347826  0.65594568     0.11400
H1051       H  0.30041082  0.59357982  0.69545316     0.11100
H1052       H  0.26210382  0.59621886  0.68818991     0.07700
C1053       C  0.14357322  0.49118098  0.48569073    -0.11400
C1054       C  0.12812502  0.49845316  0.51182605     0.05700
C1055       C  0.11261530  0.48512176  0.52587918    -0.10200
C1056       C  0.11267284  0.46506062  0.51411884    -0.11900
C1057       C  0.12812297  0.45793627  0.48774825    -0.01600
C1058       C  0.14357446  0.47134730  0.47390595    -0.10800
C1059       C  0.12842427  0.51991565  0.52347508     0.05700
H1060       H  0.10053928  0.49016460  0.54618910     0.07600
H1061       H  0.10049804  0.45521349  0.52527532     0.11100
H1062       H  0.15573391  0.46657812  0.45348747     0.11400
H1063       H  0.15553349  0.50095851  0.47358219     0.07700
C1064       C  0.14795223  0.52968025  0.52840750    -0.11500
C1065       C  0.14880037  0.55013447  0.53470468    -0.10700
C1066       C  0.13014873  0.56166503  0.53633447    -0.01700
C1067       C  0.11045081  0.55182165  0.53367549    -0.11800
C1068       C  0.10960499  0.53116669  0.52735424    -0.10200
H1069       H  0.16275670  0.52152539  0.52667418     0.07700
H1070       H  0.16429575  0.55699584  0.53721018     0.11400
H1071       H  0.09575808  0.56015551  0.53491803     0.11100
H1072       H  0.09426981  0.52416550  0.52375465     0.07700
C1073       C  0.10787502  0.63271841  0.86891349    -0.11400
C1074       C  0.12332110  0.62386390  0.84448228     0.05700
C1075       C  0.14035879  0.61386996  0.86078335    -0.10200
C1076       C  0.14210051  0.61307206  0.90022283    -0.11900
C1077       C  0.12669319  0.62197809  0.92449571    -0.01600
C1078       C  0.10944518  0.63164288  0.90836137    -0.10800
C1079       C  0.12172202  0.62527351  0.80233684     0.05700
H1080       H  0.15232388  0.60649021  0.84313037     0.07600
H1081       H  0.15549663  0.60533071  0.91171552     0.11100
H1082       H  0.09737466  0.63876920  0.92622275     0.11400
H1083       H  0.09473438  0.64090103  0.85766995     0.07700
C1084       C  0.10171580  0.62583033  0.78546886    -0.11500
C1085       C  0.10004563  0.62804072  0.74633855    -0.10700
C1086       C  0.11832591  0.62949846  0.72265826    -0.01700
C1087       C  0.13838693  0.62845667  0.73922139    -0.11800
C1088       C  0.14006553  0.62646006  0.77858198    -0.10200
H1089       H  0.08721407  0.62442055  0.80243089     0.07700
H1090       H  0.08429844  0.62853016  0.73465959     0.11400
H1091       H  0.15280472  0.62944185  0.72186226     0.11100
H1092       H  0.15577769  0.62631363  0.79039059     0.07700
C1093       C  0.10218143  0.62695360  0.28579774    -0.11400
C1094       C  0.12205925  0.62943617  0.30268362     0.05700
C1095       C  0.13990912  0.63343110  0.27891893    -0.10200
C1096       C  0.13793848  0.63466355  0.23948998    -0.11900
C1097       C  0.11800297  0.63230341  0.22284901    -0.01600
C1098       C  0.10016763  0.62850826  0.24656784    -0.10800
C1099       C  0.12412916  0.62757716  0.34469967     0.05700
H1100       H  0.15543171  0.63585645  0.29071787     0.07600
H1101       H  0.15198176  0.63773918  0.22210529     0.11100
H1102       H  0.08457386  0.62644862  0.23475875     0.11400
H1103       H  0.08811749  0.62342589  0.30272882     0.07700
C1104       C  0.10731591  0.63303729  0.36992867    -0.11500
C1105       C  0.10915974  0.63094216  0.40917461    -0.10700
C1106       C  0.12799911  0.62366963  0.42434282    -0.01700
C1107       C  0.14482064  0.61827622  0.39926369    -0.11800
C1108       C  0.14285931  0.62005912  0.36003449    -0.10200
H1109       H  0.09277395  0.63925034  0.35951752     0.07700
H1110       H  0.09595223  0.63538148  0.42767843     0.11400
H1111       H  0.15952265  0.61248266  0.40992314     0.11100
H1112       H  0.15598987  0.61523748  0.34176656     0.07700
C1113       C  0.27141979  0.60927234  0.17696422    -0.11400
C1114       C  0.26287271  0.62673373  0.16242546     0.05700
C1115       C  0.27625143  0.64319789  0.15718691    -0.10200
C1116       C  0.29806835  0.64161648  0.16309811    -0.11900
C1117       C  0.30689426  0.62350311  0.17406169    -0.01600
C1118       C  0.29321494  0.60762973  0.18255623    -0.10800
C1119       C  0.24082919  0.62682447  0.14849181     0.05700
H1120       H  0.27014317  0.65686491  0.14608953     0.07600
H1121       H  0.30815617  0.65423576  0.15682310     0.11100
H1122       H  0.29944174  0.59360130  0.19172840     0.11400
H1123       H  0.26136149  0.59652255  0.18232516     0.07700
C1124       C  0.23329805  0.61019293  0.12857827    -0.11500
C1125       C  0.21312970  0.61017528  0.11333033    -0.10700
C1126       C  0.19991216  0.62680419  0.11749716    -0.01700
C1127       C  0.20725034  0.64347240  0.13765344    -0.11800
C1128       C  0.22763389  0.64353291  0.15283554    -0.10200
H1129       H  0.24324185  0.59728473  0.12384390     0.07700
H1130       H  0.20795403  0.59710231  0.09797100     0.11400
H1131       H  0.19740760  0.65653991  0.14108317     0.11100
H1132       H  0.23305480  0.65658337  0.16796150     0.07700
C1133       C  0.14118278  0.52901055  0.03686005    -0.11400
C1134       C  0.12217125  0.52018820  0.02469358     0.05700
C1135       C  0.10429001  0.53258365  0.02111056    -0.10200
C1136       C  0.10582446  0.55325702  0.02750892    -0.11900
C1137       C  0.12528545  0.56205470  0.03759677    -0.01600
C1138       C  0.14273425  0.54947770  0.04298409    -0.10800
C1139       C  0.12182400  0.49845929  0.01390035     0.05700
H1140       H  0.08935273  0.52645202  0.01180001     0.07600
H1141       H  0.09204187  0.56242050  0.02297153     0.11100
H1142       H  0.15793952  0.55551863  0.05118060     0.11400
H1143       H  0.15516292  0.52008655  0.04118345     0.07700
C1144       C  0.13990148  0.48976789  0.99622101    -0.11500
C1145       C  0.14027000  0.46968174  0.98599402    -0.10700
C1146       C  0.12255611  0.45730481  0.99277820    -0.01700
C1147       C  0.10435466  0.46580818  0.01054393    -0.11800
C1148       C  0.10395040  0.48616150  0.02077517    -0.10200
H1149       H  0.15383356  0.49860958  0.98944127     0.07700
H1150       H  0.15457854  0.46387734  0.97222211     0.11400
H1151       H  0.09032569  0.45684136  0.01587997     0.11100
H1152       H  0.08972170  0.49221226  0.03436645     0.07700
C1153       C  0.47898658  0.36006712  0.80002733    -0.11400
C1154       C  0.48785627  0.37834225  0.78928216     0.05700
C1155       C  0.47458001  0.39506288  0.78901287    -0.10200
C1156       C  0.45273651  0.39329511  0.79769440    -0.11900
C1157       C  0.44377190  0.37477162  0.80680977    -0.01600
C1158       C  0.45727604  0.35828660  0.80851209    -0.10800
C1159       C  0.51076752  0.37946394  0.77761841     0.05700
H1160       H  0.48092885  0.40933861  0.78082114     0.07600
H1161       H  0.44275641  0.40627362  0.79591908     0.11100
H1162       H  0.45100032  0.34384178  0.81577684     0.11400
H1163       H  0.48885397  0.34699981  0.80153382     0.07700
C1164       C  0.52388048  0.39514613  0.78960574    -0.11500
C1165       C  0.54590700  0.39468227  0.78184396    -0.10700
C1166       C  0.55516992  0.37851221  0.76200994    -0.01700
C1167       C  0.54178665  0.36354767  0.74804529    -0.11800
C1168       C  0.51992650  0.36404955  0.75564604    -0.10200
H1169       H  0.51727867  0.40728740  0.80642804     0.07700
H1170       H  0.55576579  0.40650618  0.79280704     0.11400
H1171       H  0.54827879  0.35107192  0.73201157     0.11100
H1172       H  0.51019530  0.35206636  0.74493781     0.07700
C1173       C  0.51910378  0.39335660  0.26913722    -0.11400
C1174       C  0.50926690  0.37879832  0.29183082     0.05700
C1175       C  0.52198379  0.36477568  0.30945003    -0.10200
C1176       C  0.54385202  0.36451420  0.30278565    -0.11900
C1177       C  0.55359742  0.37836070  0.27858644    -0.01600
C1178       C  0.54118554  0.39320190  0.26270304    -0.10800
C1179       C  0.48580831  0.37743234  0.29591154     0.05700
H1180       H  0.51496657  0.35373042  0.32793815     0.07600
H1181       H  0.55312705  0.35313122  0.31598558     0.11100
H1182       H  0.54837614  0.40402974  0.24393863     0.11400
H1183       H  0.50966538  0.40431609  0.25511435     0.07700
C1184       C  0.47320844  0.39448536  0.30039050    -0.11500
C1185       C  0.45108479  0.39288037  0.30455994    -0.10700
C1186       C  0.44119003  0.37418556  0.30413713    -0.01700
C1187       C  0.45386375  0.35717667  0.29954627    -0.11800
C1188       C  0.47586167  0.35878572  0.29537863    -0.10200
H1189       H  0.48047307  0.40903027  0.30117037     0.07700
H1190       H  0.44174624  0.40626395  0.30795924     0.11400
H1191       H  0.44680371  0.34253644  0.29902093     0.11100
H1192       H  0.48508053  0.34537369  0.29124600     0.07700
C1193       C  0.61996510  0.36272512  0.58120181    -0.11400
C1194       C  0.62190993  0.38120847  0.56358928     0.05700
C1195       C  0.62425924  0.39819843  0.58695672    -0.10200
C1196       C  0.62417517  0.39671289  0.62664553    -0.11900
C1197       C  0.62208078  0.37817486  0.64395413    -0.01600
C1198       C  0.62024001  0.36122352  0.62059950    -0.10800
C1199       C  0.62111958  0.38263324  0.52123853     0.05700
H1200       H  0.62628152  0.41270169  0.57472787     0.07600
H1201       H  0.62567088  0.41007293  0.64371837     0.11100
H1202       H  0.61851368  0.34665226  0.63274477     0.11400
H1203       H  0.61763923  0.34929896  0.56474686     0.07700
C1204       C  0.62810054  0.36685531  0.49736186    -0.11500
C1205       C  0.62719640  0.36815944  0.45780669    -0.10700
C1206       C  0.61982900  0.38545931  0.44102344    -0.01700
C1207       C  0.61269381  0.40114733  0.46465093    -0.11800
C1208       C  0.61311010  0.39968393  0.50414930    -0.10200
H1209       H  0.63481983  0.35360378  0.50900783     0.07700
H1210       H  0.63308826  0.35594306  0.44033485     0.11400
H1211       H  0.60681401  0.41466311  0.45253519     0.11100
H1212       H  0.60701280  0.41195660  0.52116267     0.07700
C1213       C  0.62600849  0.40221328  0.00496025    -0.11400
C1214       C  0.61846788  0.38482105  0.02198141     0.05700
C1215       C  0.61367543  0.36838884  0.99869399    -0.10200
C1216       C  0.61695597  0.36924012  0.95923982    -0.11900
C1217       C  0.62500563  0.38656936  0.94242643    -0.01600
C1218       C  0.62928484  0.40306532  0.96582907    -0.10800
C1219       C  0.61646741  0.38384552  0.06398109     0.05700
H1220       H  0.60788390  0.35474528  0.01103236     0.07600
H1221       H  0.61323035  0.35636890  0.94197795     0.11100
H1222       H  0.63525987  0.41676237  0.95397238     0.11400
H1223       H  0.62939145  0.41526546  0.02196366     0.07700
C1224       C  0.63206959  0.39269296  0.08660560    -0.11500
C1225       C  0.63045390  0.39195698  0.12610310    -0.10700
C1226       C  0.61337409  0.38208860  0.14391643    -0.01700
C1227       C  0.59772218  0.37322023  0.12144957    -0.11800
C1228       C  0.59918988  0.37418226  0.08183207    -0.10200
H1229       H  0.64581638  0.39988289  0.07373742     0.07700
H1230       H  0.64294010  0.39858311  0.14269554     0.11400
H1231       H  0.58435946  0.36552655  0.13453659     0.11100
H1232       H  0.58678993  0.36745334  0.06520078     0.07700
C1233       C  0.52134346  0.61794912  0.71435666    -0.11400
C1234       C  0.50836591  0.63058472  0.69358888     0.05700
C1235       C  0.51800353  0.64308672  0.66659401    -0.10200
C1236       C  0.54009003  0.64390189  0.66212528    -0.11900
C1237       C  0.55309684  0.63199148  0.68406687    -0.01600
C1238       C  0.54353995  0.61858054  0.70948192    -0.10800
C1239       C  0.48503537  0.63178184  0.70139067     0.05700
H1240       H  0.50844922  0.65261526  0.64943568     0.07600
H1241       H  0.54704897  0.65419963  0.64201975     0.11100
H1242       H  0.55324705  0.60934625  0.72696330     0.11400
H1243       H  0.51442140  0.60823634  0.73553426     0.07700
C1244       C  0.47276726  0.61473219  0.70844135    -0.11500
C1245       C  0.45082714  0.61623097  0.71594476    -0.10700
C1246       C  0.44073430  0.63482146  0.71671222    -0.01700
C1247       C  0.45304492  0.65180775  0.70954543    -0.11800
C1248       C  0.47488612  0.65031105  0.70215870    -0.10200
H1249       H  0.48008758  0.60023694  0.70777627     0.07700
H1250       H  0.44178984  0.60283333  0.72120577     0.11400
H1251       H  0.44586709  0.66636715  0.71010484     0.11100
H1252       H  0.48391816  0.66378244  0.69765067     0.07700
C1253       C  0.61790827  0.53277042  0.74252950    -0.11400
C1254       C  0.62286009  0.51660494  0.71835415     0.05700
C1255       C  0.62830551  0.52007178  0.68021076    -0.10200
C1256       C  0.62883813  0.53930405  0.66636311    -0.11900
C1257       C  0.62356482  0.55550095  0.69018551    -0.01600
C1258       C  0.61800801  0.55208113  0.72843418    -0.10800
C1259       C  0.62284963  0.49610605  0.73262147     0.05700
H1260       H  0.63243447  0.50786709  0.66118925     0.07600
H1261       H  0.63311850  0.54147222  0.63674620     0.11100
H1262       H  0.61396117  0.56431434  0.74743656     0.11400
H1263       H  0.61370551  0.53040908  0.77211758     0.07700
C1264       C  0.63446706  0.49137306  0.76464857    -0.11500
C1265       C  0.63581158  0.47175322  0.77637983    -0.10700
C1266       C  0.62531052  0.45648589  0.75663430    -0.01700
C1267       C  0.61323262  0.46133174  0.72511980    -0.11800
C1268       C  0.61216676  0.48094795  0.71304664    -0.10200
H1269       H  0.64297314  0.50278693  0.77997352     0.07700
H1270       H  0.64512343  0.46854339  0.80096646     0.11400
H1271       H  0.60489267  0.44994016  0.70946147     0.11100
H1272       H  0.60303254  0.48431288  0.68831828     0.07700
C1273       C  0.52090001  0.62074881  0.21871664    -0.11400
C1274       C  0.50781834  0.63565505  0.20436635     0.05700
C1275       C  0.51742162  0.65075170  0.18275712    -0.10200
C1276       C  0.53944156  0.65144614  0.17695010    -0.11900
C1277       C  0.55256982  0.63686934  0.19195154    -0.01600
C1278       C  0.54305691  0.62131639  0.21245130    -0.10800
C1279       C  0.48436233  0.63603130  0.21241488     0.05700
H1280       H  0.50790587  0.66218633  0.17033112     0.07600
H1281       H  0.54623296  0.66356234  0.16083232     0.11100
H1282       H  0.55279322  0.61000219  0.22477530     0.11400
H1283       H  0.51411247  0.60899310  0.23575813     0.07700
C1284       C  0.47215334  0.61852504  0.21372214    -0.11500
C1285       C  0.44999217  0.61932527  0.21970645    -0.10700
C1286       C  0.43956789  0.63765096  0.22426640    -0.01700
C1287       C  0.45185726  0.65504762  0.22376964    -0.11800
C1288       C  0.47388782  0.65424261  0.21820176    -0.10200
H1289       H  0.47963483  0.60424019  0.20924977     0.07700
H1290       H  0.44099279  0.60563441  0.22010905     0.11400
H1291       H  0.44446102  0.66940432  0.22788832     0.11100
H1292       H  0.48274282  0.66800544  0.21859567     0.07700
C1293       C  0.61540208  0.64499637  0.94154010    -0.11400
C1294       C  0.61329566  0.62777898  0.91894439     0.05700
C1295       C  0.61072845  0.60949976  0.93692426    -0.10200
C1296       C  0.61074689  0.60838573  0.97647914    -0.11900
C1297       C  0.61343456  0.62552142  0.99917553    -0.01600
C1298       C  0.61546966  0.64388879  0.98120676    -0.10800
C1299       C  0.61375882  0.62891500  0.87680687     0.05700
H1300       H  0.60868291  0.59603035  0.92038235     0.07600
H1301       H  0.60902540  0.59395963  0.98923796     0.11100
H1302       H  0.61774793  0.65733545  0.99770195     0.11400
H1303       H  0.61758284  0.65930018  0.92848756     0.07700
C1304       C  0.60309527  0.64426655  0.85889314    -0.11500
C1305       C  0.60369659  0.64569552  0.81943680    -0.10700
C1306       C  0.61498456  0.63179914  0.79670942    -0.01700
C1307       C  0.62550349  0.61625506  0.81452059    -0.11800
C1308       C  0.62488890  0.61482783  0.85418613    -0.10200
H1309       H  0.59408263  0.65512822  0.87543030     0.07700
H1310       H  0.59522802  0.65776466  0.80675934     0.11400
H1311       H  0.63434985  0.60531629  0.79787794     0.11100
H1312       H  0.63342570  0.60290380  0.86719984     0.07700
C1313       C  0.60341261  0.64445727  0.36033328    -0.11400
C1314       C  0.61379673  0.62875270  0.37763433     0.05700
C1315       C  0.62512462  0.61499299  0.35457177    -0.10200
C1316       C  0.62621153  0.61708265  0.31504524    -0.11900
C1317       C  0.61604984  0.63302428  0.29787894    -0.01600
C1318       C  0.60455072  0.64658494  0.32105041    -0.10800
C1319       C  0.61311421  0.62704421  0.41963406     0.05700
H1320       H  0.63347635  0.60282468  0.36715413     0.07600
H1321       H  0.63515841  0.60637160  0.29802146     0.11100
H1322       H  0.59624055  0.65888244  0.30882281     0.11400
H1323       H  0.59424303  0.65507326  0.37719659     0.07700
C1324       C  0.61520957  0.64396376  0.44301100    -0.11500
C1325       C  0.61571610  0.64227642  0.48249181    -0.10700
C1326       C  0.61413492  0.62361880  0.49947912    -0.01700
C1327       C  0.61117826  0.60680198  0.47609923    -0.11800
C1328       C  0.61072560  0.60849626  0.43667951    -0.10200
H1329       H  0.61718155  0.65847270  0.43070605     0.07700
H1330       H  0.61799302  0.65552295  0.49957833     0.11400
H1331       H  0.60970840  0.59218936  0.48815505     0.11100
H1332       H  0.60863403  0.59525559  0.41949162     0.07700
C1333       C  0.60847360  0.48111231  0.20823794    -0.11400
C1334       C  0.61863040  0.49664993  0.22776595     0.05700
C1335       C  0.63009761  0.49218349  0.26019653    -0.10200
C1336       C  0.63152639  0.47268599  0.27273714    -0.11900
C1337       C  0.62132364  0.45710167  0.25343367    -0.01600
C1338       C  0.60967578  0.46156753  0.22108745    -0.10800
C1339       C  0.61803669  0.51737379  0.21385386     0.05700
H1340       H  0.63833171  0.50377084  0.27551968     0.07600
H1341       H  0.64059070  0.46984986  0.29779118     0.11100
H1342       H  0.60156881  0.44995649  0.20561807     0.11400
H1343       H  0.59945364  0.48412332  0.18320741     0.07700
C1344       C  0.62216133  0.52135974  0.17536495    -0.11500
C1345       C  0.62335140  0.54089248  0.16270653    -0.10700
C1346       C  0.62000011  0.55692600  0.18804902    -0.01700
C1347       C  0.61519601  0.55297269  0.22635034    -0.11800
C1348       C  0.61444933  0.53339935  0.23919015    -0.10200
H1349       H  0.62511887  0.50936544  0.15522780     0.07700
H1350       H  0.62687282  0.54346759  0.13293579     0.11400
H1351       H  0.61250239  0.56501369  0.24649766     0.11100
H1352       H  0.61109560  0.53076381  0.26898692     0.07700
C1353       C  0.96891910  0.61385465  0.48604777    -0.11400
C1354       C  0.97749334  0.62496853  0.51610817     0.05700
C1355       C  0.96355982  0.63581488  0.54034361    -0.10200
C1356       C  0.94187962  0.63657819  0.53335896    -0.11900
C1357       C  0.93349851  0.62608522  0.50263440    -0.01600
C1358       C  0.94703013  0.61426170  0.47960185    -0.10800
C1359       C  0.00084440  0.62601571  0.52176882     0.05700
H1360       H  0.96943378  0.64397153  0.56457645     0.07600
H1361       H  0.93162914  0.64550243  0.55187116     0.11100
H1362       H  0.94082365  0.60607414  0.45565817     0.11400
H1363       H  0.97916512  0.60542132  0.46673591     0.07700
C1364       C  0.01410092  0.60948072  0.51517456    -0.11500
C1365       C  0.03588436  0.61058882  0.52263057    -0.10700
C1366       C  0.04469285  0.62818503  0.53710920    -0.01700
C1367       C  0.03155861  0.64480168  0.54254862    -0.11800
C1368       C  0.01001654  0.64379465  0.53463264    -0.10200
H1369       H  0.00755746  0.59553275  0.50541760     0.07700
H1370       H  0.04564907  0.59752271  0.51838856     0.11400
H1371       H  0.03791127  0.65864691  0.55328360     0.11100
H1372       H  0.00051664  0.65702400  0.53882717     0.07700
C1373       C  0.76562233  0.60015290  0.58134644    -0.11400
C1374       C  0.75513228  0.61817950  0.57592724     0.05700
C1375       C  0.76727543  0.63485527  0.56547993    -0.10200
C1376       C  0.78944842  0.63343466  0.56034336    -0.11900
C1377       C  0.79988231  0.61531192  0.56567836    -0.01600
C1378       C  0.78762533  0.59872357  0.57623385    -0.10800
C1379       C  0.73156491  0.61916954  0.58062198     0.05700
H1380       H  0.75958837  0.64890196  0.56077404     0.07600
H1381       H  0.79839364  0.64649160  0.55220530     0.11100
H1382       H  0.79504303  0.58455668  0.58102391     0.11400
H1383       H  0.75679494  0.58711272  0.58999821     0.07700
C1384       C  0.71898792  0.60371261  0.56634483    -0.11500
C1385       C  0.69697145  0.60377146  0.57214336    -0.10700
C1386       C  0.68679490  0.61933116  0.59232855    -0.01700
C1387       C  0.69927558  0.63508851  0.60596635    -0.11800
C1388       C  0.72147291  0.63499729  0.60017672    -0.10200
H1389       H  0.72621018  0.59149484  0.55056262     0.07700
H1390       H  0.68790418  0.59151419  0.56071872     0.11400
H1391       H  0.69194562  0.64727910  0.62165289     0.11100
H1392       H  0.73078859  0.64704276  0.61175902     0.07700
C1393       C  0.97115159  0.64808999  0.97462986    -0.11400
C1394       C  0.98026719  0.63163023  0.99170875     0.05700
C1395       C  0.96729989  0.61542929  0.00140157    -0.10200
C1396       C  0.94535381  0.61612192  0.99591992    -0.11900
C1397       C  0.93602014  0.63301170  0.98044586    -0.01600
C1398       C  0.94927925  0.64874667  0.96889173    -0.10800
C1399       C  0.00274957  0.63222144  0.00294816     0.05700
H1400       H  0.97399310  0.60265489  0.01494670     0.07600
H1401       H  0.93562030  0.60375899  0.00516802     0.11100
H1402       H  0.94267984  0.66189239  0.95652829     0.11400
H1403       H  0.98090953  0.66068301  0.96667846     0.07700
C1404       C  0.01655988  0.61638305  0.99443644    -0.11500
C1405       C  0.03732625  0.61652919  0.00786901    -0.10700
C1406       C  0.04443533  0.63234806  0.03063288    -0.01700
C1407       C  0.03066553  0.64834174  0.03841587    -0.11800
C1408       C  0.01010429  0.64832822  0.02450780    -0.10200
H1409       H  0.01119238  0.60384435  0.97772992     0.07700
H1410       H  0.04759024  0.60402190  0.00136777     0.11400
H1411       H  0.03566531  0.66078689  0.05574623     0.11100
H1412       H  0.99965875  0.66061721  0.03172682     0.07700
C1413       C  0.85823557  0.64349897  0.80884546    -0.11400
C1414       C  0.86789595  0.62717043  0.79026946     0.05700
C1415       C  0.87737440  0.61256693  0.81243334    -0.10200
C1416       C  0.87719238  0.61422118  0.85199455    -0.11900
C1417       C  0.86796099  0.63073421  0.87035399    -0.01600
C1418       C  0.85843975  0.64534061  0.84841429    -0.10800
C1419       C  0.86794221  0.62512501  0.74809288     0.05700
H1420       H  0.88538072  0.59999017  0.79923007     0.07600
H1421       H  0.88493628  0.60291186  0.86815512     0.11100
H1422       H  0.85111161  0.65820684  0.86190616     0.11400
H1423       H  0.85040309  0.65481606  0.79288346     0.07700
C1424       C  0.86633439  0.60627367  0.73114709    -0.11500
C1425       C  0.86652727  0.60399188  0.69184432    -0.10700
C1426       C  0.86799733  0.62050648  0.66805050    -0.01700
C1427       C  0.86962377  0.63946044  0.68475657    -0.11800
C1428       C  0.86963579  0.64174233  0.72439804    -0.10200
H1429       H  0.86450824  0.59316376  0.74824595     0.07700
H1430       H  0.86515279  0.58914688  0.68016431     0.11400
H1431       H  0.87070534  0.65250405  0.66727908     0.11100
H1432       H  0.87116382  0.65649302  0.73641799     0.07700
C1433       C  0.86584467  0.60662209  0.22987372    -0.11400
C1434       C  0.86582704  0.62477574  0.24961045     0.05700
C1435       C  0.86495678  0.64240095  0.22870104    -0.10200
C1436       C  0.86406014  0.64174746  0.18888388    -0.11900
C1437       C  0.86400651  0.62345199  0.16933453    -0.01600
C1438       C  0.86489013  0.60596280  0.19048975    -0.10800
C1439       C  0.86741280  0.62495046  0.29169608     0.05700
H1440       H  0.86477045  0.65665707  0.24312302     0.07600
H1441       H  0.86324433  0.65548187  0.17350598     0.11100
H1442       H  0.86503906  0.59156277  0.17660354     0.11400
H1443       H  0.86702239  0.59279420  0.24484307     0.07700
C1444       C  0.85694332  0.61042242  0.31365930    -0.11500
C1445       C  0.85968239  0.60957716  0.35286838    -0.10700
C1446       C  0.87286642  0.62331353  0.37109732    -0.01700
C1447       C  0.88307960  0.63802268  0.34922967    -0.11800
C1448       C  0.88037679  0.63883712  0.31004825    -0.10200
H1449       H  0.84653318  0.59969476  0.30051419     0.07700
H1450       H  0.85131519  0.59829040  0.36892378     0.11400
H1451       H  0.89320133  0.64899551  0.36238632     0.11100
H1452       H  0.88885196  0.65006153  0.29401634     0.07700
C1453       C  0.76537780  0.64354534  0.06808440    -0.11400
C1454       C  0.75269796  0.62633914  0.06941091     0.05700
C1455       C  0.76267385  0.60781954  0.06633031    -0.10200
C1456       C  0.78466058  0.60639079  0.06204873    -0.11900
C1457       C  0.79751655  0.62345052  0.06084665    -0.01600
C1458       C  0.78762595  0.64211735  0.06367729    -0.10800
C1459       C  0.72916412  0.62712747  0.07461124     0.05700
H1460       H  0.75346294  0.59427507  0.06802967     0.07600
H1461       H  0.79158460  0.59173730  0.06019125     0.11100
H1462       H  0.79706099  0.65554786  0.06304738     0.11400
H1463       H  0.75809338  0.65803631  0.07028088     0.07700
C1464       C  0.71938145  0.63977391  0.10185738    -0.11500
C1465       C  0.69739280  0.63852360  0.10949561    -0.10700
C1466       C  0.68494942  0.62444332  0.09033606    -0.01700
C1467       C  0.69464524  0.61233527  0.06229755    -0.11800
C1468       C  0.71640762  0.61379534  0.05427599    -0.10200
H1469       H  0.72882128  0.65008656  0.11816838     0.07700
H1470       H  0.69023632  0.64809994  0.13113778     0.11400
H1471       H  0.68534394  0.60170139  0.04644702     0.11100
H1472       H  0.72336988  0.60417755  0.03250569     0.07700
C1473       C  0.97548664  0.35776808  0.94531845    -0.11400
C1474       C  0.98390589  0.37594808  0.95781043     0.05700
C1475       C  0.97029482  0.39236255  0.96170166    -0.10200
C1476       C  0.94856409  0.39043987  0.95434208    -0.11900
C1477       C  0.94008192  0.37206499  0.94300516    -0.01600
C1478       C  0.95385134  0.35582597  0.93815888    -0.10800
C1479       C  0.00671868  0.37733879  0.96758588     0.05700
H1480       H  0.97634060  0.40651047  0.97148520     0.07600
H1481       H  0.93829369  0.40316374  0.95862248     0.11100
H1482       H  0.94786051  0.34152733  0.92905746     0.11400
H1483       H  0.98566818  0.34496152  0.94128795     0.07700
C1484       C  0.01596847  0.36214983  0.98829305    -0.11500
C1485       C  0.03776870  0.36209880  0.99453869    -0.10700
C1486       C  0.05097136  0.37725015  0.98026171    -0.01700
C1487       C  0.04158156  0.39311667  0.96145374    -0.11800
C1488       C  0.01961187  0.39315190  0.95515184    -0.10200
H1489       H  0.00634859  0.35005029  0.99911144     0.07700
H1490       H  0.04437961  0.34985354  0.00982887     0.11400
H1491       H  0.05131573  0.40502812  0.95021363     0.11100
H1492       H  0.01286763  0.40508559  0.93919710     0.07700
C1493       C  0.77689996  0.39198686  0.80469824    -0.11400
C1494       C  0.76357303  0.38126589  0.82969657     0.05700
C1495       C  0.77300868  0.37031607  0.85849810    -0.10200
C1496       C  0.79517468  0.37049715  0.86273944    -0.11900
C1497       C  0.80833631  0.38178605  0.83848961    -0.01600
C1498       C  0.79896248  0.39230360  0.80913776    -0.10800
C1499       C  0.73992365  0.38253858  0.82704694     0.05700
H1500       H  0.76318119  0.36212488  0.87851638     0.07600
H1501       H  0.80195731  0.36236513  0.88575240     0.11100
H1502       H  0.80874074  0.40089115  0.78965119     0.11400
H1503       H  0.77021114  0.40032185  0.78186477     0.07700
C1504       C  0.73023580  0.40094115  0.82141137    -0.11500
C1505       C  0.70808580  0.40263254  0.82094469    -0.10700
C1506       C  0.69483967  0.38594527  0.82577394    -0.01700
C1507       C  0.70450341  0.36738322  0.83031555    -0.11800
C1508       C  0.72679963  0.36572966  0.83122722    -0.10200
H1509       H  0.73980074  0.41421445  0.81845102     0.07700
H1510       H  0.70132496  0.41718412  0.81721859     0.11400
H1511       H  0.69484152  0.35422908  0.83407631     0.11100
H1512       H  0.73379723  0.35130688  0.83526293     0.07700
C1513       C  0.85922277  0.51821126  0.99060690    -0.11400
C1514       C  0.87240370  0.51249528  0.95975111     0.05700
C1515       C  0.88365759  0.52718059  0.93954980    -0.10200
C1516       C  0.88183961  0.54723982  0.95032536    -0.11900
C1517       C  0.86835958  0.55298472  0.98099628    -0.01600
C1518       C  0.85709507  0.53817236  0.00090907    -0.10800
C1519       C  0.87345167  0.49131690  0.94791218     0.05700
H1520       H  0.89392372  0.52309325  0.91558303     0.07600
H1521       H  0.89080175  0.55822976  0.93450542     0.11100
H1522       H  0.84662840  0.54197890  0.02476391     0.11400
H1523       H  0.85020162  0.50721232  0.00632468     0.07700
C1524       C  0.87853748  0.47655756  0.97395996    -0.11500
C1525       C  0.87823187  0.45646573  0.96318349    -0.10700
C1526       C  0.87226489  0.45076088  0.92644787    -0.01700
C1527       C  0.86720465  0.46559832  0.90052123    -0.11800
C1528       C  0.86801158  0.48563293  0.91100540    -0.10200
H1529       H  0.88271407  0.48060936  0.00266210     0.07700
H1530       H  0.88220508  0.44539904  0.98376759     0.11400
H1531       H  0.86266791  0.46171024  0.87192988     0.11100
H1532       H  0.86380299  0.49670099  0.89057334     0.07700
C1533       C  0.98881436  0.36011005  0.43917219    -0.11400
C1534       C  0.99308134  0.37341607  0.46896622     0.05700
C1535       C  0.97683308  0.38588076  0.48309128    -0.10200
C1536       C  0.95672597  0.38530699  0.46694074    -0.11900
C1537       C  0.95273332  0.37248329  0.43605160    -0.01600
C1538       C  0.96888968  0.35966304  0.42283496    -0.10800
C1539       C  0.01495573  0.37474915  0.48306080     0.05700
H1540       H  0.97977769  0.39613933  0.50626351     0.07600
H1541       H  0.94447099  0.39517659  0.47810675     0.11100
H1542       H  0.96632705  0.34957334  0.39924010     0.11400
H1543       H  0.00119426  0.35048930  0.42760030     0.07700
C1544       C  0.02574646  0.35737490  0.49192016    -0.11500
C1545       C  0.04760825  0.35770967  0.49727653    -0.10700
C1546       C  0.05926549  0.37543923  0.49361402    -0.01700
C1547       C  0.04819178  0.39311570  0.48725429    -0.11800
C1548       C  0.02613979  0.39277901  0.48225381    -0.10200
H1549       H  0.01738199  0.34333910  0.49290438     0.07700
H1550       H  0.05550376  0.34380993  0.50240615     0.11400
H1551       H  0.05665770  0.40702738  0.48457633     0.11100
H1552       H  0.01808135  0.40635718  0.47529832     0.07700
C1553       C  0.89668615  0.37773799  0.59596804    -0.11400
C1554       C  0.87928814  0.37394392  0.62066019     0.05700
C1555       C  0.85905164  0.37134193  0.60539278    -0.10200
C1556       C  0.85614262  0.37287952  0.56637189    -0.11900
C1557       C  0.87345822  0.37682611  0.54155898    -0.01600
C1558       C  0.89384416  0.37897053  0.55675632    -0.10800
C1559       C  0.88179383  0.37376428  0.66243142     0.05700
H1560       H  0.84533396  0.36864491  0.62383353     0.07600
H1561       H  0.84026350  0.37102528  0.55565916     0.11100
H1562       H  0.90753832  0.38197118  0.53844283     0.11400
H1563       H  0.91246206  0.37976553  0.60704844     0.07700
C1564       C  0.87226411  0.35882863  0.68453298    -0.11500
C1565       C  0.87245983  0.35995360  0.72425168    -0.10700
C1566       C  0.88182248  0.37625311  0.74259612    -0.01700
C1567       C  0.89211295  0.39075406  0.72041031    -0.11800
C1568       C  0.89225741  0.38943259  0.68076656    -0.10200
H1569       H  0.86418864  0.34653876  0.67102568     0.07700
H1570       H  0.86426894  0.34865362  0.74055874     0.11400
H1571       H  0.89947423  0.40349012  0.73374534     0.11100
H1572       H  0.89960056  0.40120083  0.66443976     0.07700
C1573       C  0.85396072  0.37327523  0.18898308    -0.11400
C1574       C  0.87153964  0.37532343  0.16397481     0.05700
C1575       C  0.89204370  0.37578597  0.17866016    -0.10200
C1576       C  0.89499088  0.37396137  0.21767378    -0.11900
C1577       C  0.87745487  0.37187552  0.24301595    -0.01600
C1578       C  0.85685756  0.37176642  0.22817054    -0.10800
C1579       C  0.86876946  0.37550468  0.12239009     0.05700
H1580       H  0.90582659  0.37706880  0.15976321     0.07600
H1581       H  0.91107304  0.37412682  0.22793950     0.11100
H1582       H  0.84298320  0.37023757  0.24675178     0.11400
H1583       H  0.83800860  0.37277113  0.17811629     0.07700
C1584       C  0.86104990  0.35856934  0.10389220    -0.11500
C1585       C  0.86075649  0.35758633  0.06427809    -0.10700
C1586       C  0.86786002  0.37365939  0.04225785    -0.01700
C1587       C  0.87455044  0.39103781  0.06090989    -0.11800
C1588       C  0.87525964  0.39185019  0.10068472    -0.10200
H1589       H  0.85612273  0.34576282  0.12009808     0.07700
H1590       H  0.85552804  0.34397712  0.05080157     0.11400
H1591       H  0.88029067  0.40357453  0.04474873     0.11100
H1592       H  0.88130860  0.40504867  0.11451638     0.07700
C1593       C  0.76801916  0.39767934  0.33740909    -0.11400
C1594       C  0.75554743  0.38062637  0.33233573     0.05700
C1595       C  0.76542948  0.36194295  0.33237054    -0.10200
C1596       C  0.78696557  0.36038291  0.34114225    -0.11900
C1597       C  0.79857855  0.37745946  0.35047619    -0.01600
C1598       C  0.78922090  0.39610076  0.34688302    -0.10800
C1599       C  0.73212607  0.38259820  0.33114565     0.05700
H1600       H  0.75626008  0.34853685  0.32820975     0.07600
H1601       H  0.79404159  0.34585993  0.34342961     0.11100
H1602       H  0.79809351  0.40949029  0.35302366     0.11400
H1603       H  0.76109454  0.41230316  0.33596666     0.07700
C1604       C  0.72186580  0.39690817  0.35445309    -0.11500
C1605       C  0.69996733  0.39943588  0.35349297    -0.10700
C1606       C  0.68770464  0.38738016  0.32994262    -0.01700
C1607       C  0.69771618  0.37262490  0.30739117    -0.11800
C1608       C  0.71981943  0.37031804  0.30781488    -0.10200
H1609       H  0.73075621  0.40610044  0.37386531     0.07700
H1610       H  0.69255796  0.41060026  0.37177002     0.11400
H1611       H  0.68848883  0.36311339  0.28904806     0.11100
H1612       H  0.72727144  0.35916346  0.28960900     0.07700
C1613       C  0.88943343  0.47067169  0.45237088    -0.11400
C1614       C  0.87128478  0.48253197  0.44722547     0.05700
C1615       C  0.85293368  0.47312299  0.43352809    -0.10200
C1616       C  0.85228977  0.45258596  0.42710453    -0.11900
C1617       C  0.87004869  0.44057006  0.43362706    -0.01600
C1618       C  0.88883524  0.44997124  0.44558856    -0.10800
C1619       C  0.87067835  0.50427874  0.45803443     0.05700
H1620       H  0.83878680  0.48164865  0.42823538     0.07600
H1621       H  0.83760160  0.44601397  0.41755215     0.11100
H1622       H  0.90277413  0.44122492  0.45128227     0.11400
H1623       H  0.90383935  0.47725541  0.46308889     0.07700
C1624       C  0.85223368  0.51235641  0.47563105    -0.11500
C1625       C  0.85117501  0.53238936  0.48644176    -0.10700
C1626       C  0.86841694  0.54531877  0.47980781    -0.01700
C1627       C  0.88688360  0.53747186  0.46176736    -0.11800
C1628       C  0.88807586  0.51716958  0.45135316    -0.10200
H1629       H  0.83860579  0.50303492  0.48197140     0.07700
H1630       H  0.83671714  0.53776802  0.50036487     0.11400
H1631       H  0.90057762  0.54690030  0.45659656     0.11100
H1632       H  0.90254730  0.51160130  0.43781047     0.07700
C1633       C  0.13872987  0.27731576  0.89354587    -0.11400
C1634       C  0.11947903  0.26702182  0.88770320     0.05700
C1635       C  0.10067595  0.27834154  0.88643450    -0.10200
C1636       C  0.10081425  0.29880250  0.89396301    -0.11900
C1637       C  0.11982122  0.30884686  0.90190401    -0.01600
C1638       C  0.13890327  0.29798570  0.90030861    -0.10800
C1639       C  0.11846249  0.24462968  0.88646858     0.05700
H1640       H  0.08558824  0.27128779  0.88079016     0.07600
H1641       H  0.08585941  0.30674251  0.89466106     0.11100
H1642       H  0.15378774  0.30524772  0.90670118     0.11400
H1643       H  0.15355107  0.26928556  0.89495930     0.07700
C1644       C  0.13501603  0.23273827  0.87059077    -0.11500
C1645       C  0.13400854  0.21179362  0.87192538    -0.10700
C1646       C  0.11648069  0.20221366  0.88938397    -0.01700
C1647       C  0.09985955  0.21417228  0.90439256    -0.11800
C1648       C  0.10085311  0.23484111  0.90309297    -0.10200
H1649       H  0.14882216  0.23960546  0.85730338     0.07700
H1650       H  0.14716924  0.20315977  0.86027513     0.11400
H1651       H  0.08607200  0.20755602  0.91828101     0.11100
H1652       H  0.08796581  0.24315271  0.91651814     0.07700
C1653       C  0.14506351  0.23250077  0.38651381    -0.11400
C1654       C  0.12628125  0.24389858  0.38863632     0.05700
C1655       C  0.10667616  0.23394657  0.38609910    -0.10200
C1656       C  0.10570530  0.21328417  0.38519224    -0.11900
C1657       C  0.12430544  0.20182501  0.38613387    -0.01600
C1658       C  0.14407686  0.21161530  0.38522016    -0.10800
C1659       C  0.12655550  0.26571786  0.39735065     0.05700
H1660       H  0.09190174  0.24216063  0.38656970     0.07600
H1661       H  0.09022168  0.20619608  0.38580748     0.11100
H1662       H  0.15865432  0.20317781  0.38648305     0.11400
H1663       H  0.16043800  0.23964662  0.38838040     0.07700
C1664       C  0.11142455  0.27363360  0.42337311    -0.11500
C1665       C  0.11089304  0.29385815  0.43197901    -0.10700
C1666       C  0.12549060  0.30707742  0.41497248    -0.01700
C1667       C  0.14093769  0.29926669  0.38925602    -0.11800
C1668       C  0.14153378  0.27876938  0.38068766    -0.10200
H1669       H  0.10001201  0.26408720  0.43767279     0.07700
H1670       H  0.09891330  0.29911433  0.45229420     0.11400
H1671       H  0.15261020  0.30894471  0.37601118     0.11100
H1672       H  0.15349073  0.27318209  0.36067932     0.07700
C1673       C  0.13187364  0.11552992  0.62460598    -0.11400
C1674       C  0.11814100  0.12712094  0.64789844     0.05700
C1675       C  0.10392848  0.14008577  0.63097654    -0.10200
C1676       C  0.10360661  0.14161811  0.59161320    -0.11900
C1677       C  0.11730343  0.13005061  0.56838065    -0.01600
C1678       C  0.13134195  0.11687685  0.58510164    -0.10800
C1679       C  0.11847511  0.12557841  0.68970675     0.05700
H1680       H  0.09291096  0.14890565  0.64817314     0.07600
H1681       H  0.09247507  0.15173710  0.57924095     0.11100
H1682       H  0.14219262  0.10799349  0.56767531     0.11400
H1683       H  0.14320530  0.10561448  0.63696376     0.07700
C1684       C  0.12021916  0.10699748  0.70652698    -0.11500
C1685       C  0.12080587  0.10545269  0.74583229    -0.10700
C1686       C  0.11971091  0.12248417  0.76932880    -0.01700
C1687       C  0.11762199  0.14107208  0.75252900    -0.11800
C1688       C  0.11699133  0.14260041  0.71306415    -0.10200
H1689       H  0.12099065  0.09361303  0.68927339     0.07700
H1690       H  0.12230408  0.09084030  0.75771983     0.11400
H1691       H  0.11674973  0.15444429  0.76979250     0.11100
H1692       H  0.11576746  0.15714169  0.70077011     0.07700
C1693       C  0.12995330  0.11330286  0.12302776    -0.11400
C1694       C  0.12219570  0.12854912  0.14733828     0.05700
C1695       C  0.11265229  0.14509186  0.13125016    -0.10200
C1696       C  0.11080303  0.14637452  0.09204503    -0.11900
C1697       C  0.11826905  0.13107150  0.06777349    -0.01600
C1698       C  0.12788621  0.11449699  0.08362952    -0.10800
C1699       C  0.12310097  0.12692371  0.18935522     0.05700
H1700       H  0.10609916  0.15689331  0.14901165     0.07600
H1701       H  0.10313965  0.15929191  0.08077047     0.11100
H1702       H  0.13399183  0.10258992  0.06560201     0.11400
H1703       H  0.13768678  0.10046780  0.13443791     0.07700
C1704       C  0.11957971  0.10859897  0.20671146    -0.11500
C1705       C  0.11955364  0.10705362  0.24612995    -0.10700
C1706       C  0.12301450  0.12379723  0.26945199    -0.01700
C1707       C  0.12642330  0.14219736  0.25221325    -0.11800
C1708       C  0.12655487  0.14372676  0.21258470    -0.10200
H1709       H  0.11642427  0.09544173  0.18987199     0.07700
H1710       H  0.11677380  0.09261999  0.25832293     0.11400
H1711       H  0.12934388  0.15533323  0.26927137     0.11100
H1712       H  0.12958242  0.15805230  0.20012883     0.07700
C1713       C  0.38907287  0.23309724  0.87762968    -0.11400
C1714       C  0.37092379  0.24231275  0.89390322     0.05700
C1715       C  0.35301924  0.23029808  0.90239415    -0.10200
C1716       C  0.35314936  0.20984323  0.89351131    -0.11900
C1717       C  0.37115361  0.20105754  0.87585239    -0.01600
C1718       C  0.38921549  0.21291774  0.86905897    -0.10800
C1719       C  0.37066838  0.26446947  0.89870418     0.05700
H1720       H  0.33877279  0.23672846  0.91520288     0.07600
H1721       H  0.33892252  0.20114556  0.89884919     0.11100
H1722       H  0.40340919  0.20671129  0.85553765     0.11400
H1723       H  0.40303377  0.24158360  0.86951904     0.07700
C1724       C  0.38980352  0.27490774  0.90451327    -0.11500
C1725       C  0.39088886  0.29541065  0.90007628    -0.10700
C1726       C  0.37271083  0.30622605  0.89148262    -0.01700
C1727       C  0.35308557  0.29631367  0.88968892    -0.11800
C1728       C  0.35208747  0.27558847  0.89289696    -0.10200
H1729       H  0.40431031  0.26715629  0.91074953     0.07700
H1730       H  0.40616352  0.30277039  0.90198220     0.11400
H1731       H  0.33884661  0.30437690  0.88287174     0.11100
H1732       H  0.33703796  0.26826046  0.88825627     0.07700
C1733       C  0.22103813  0.13784180  0.89042515    -0.11400
C1734       C  0.23286920  0.12288519  0.87125722     0.05700
C1735       C  0.22173036  0.10801344  0.85166981    -0.10200
C1736       C  0.19958353  0.10735703  0.85310452    -0.11900
C1737       C  0.18776510  0.12179423  0.87344209    -0.01600
C1738       C  0.19868384  0.13737878  0.89125773    -0.10800
C1739       C  0.25660974  0.12211909  0.87248616     0.05700
H1740       H  0.23010318  0.09667805  0.83528509     0.07600
H1741       H  0.19167977  0.09538655  0.83827541     0.11100
H1742       H  0.18998780  0.14877246  0.90696422     0.11400
H1743       H  0.22898819  0.14952983  0.90589663     0.07700
C1744       C  0.26911182  0.13944886  0.87375846    -0.11500
C1745       C  0.29141345  0.13831450  0.87378837    -0.10700
C1746       C  0.30169558  0.11982938  0.87242570    -0.01700
C1747       C  0.28915399  0.10258112  0.87196249    -0.11800
C1748       C  0.26702646  0.10370318  0.87222240    -0.10200
H1749       H  0.26173386  0.15390435  0.87390672     0.07700
H1750       H  0.30058550  0.15189883  0.87454261     0.11400
H1751       H  0.29641969  0.08805838  0.87125924     0.11100
H1752       H  0.25810090  0.08998468  0.87253274     0.07700
C1753       C  0.35462229  0.27481710  0.38839331    -0.11400
C1754       C  0.37311750  0.26402210  0.39639373     0.05700
C1755       C  0.39180634  0.27483978  0.40414919    -0.10200
C1756       C  0.39250285  0.29547416  0.40025494    -0.11900
C1757       C  0.37435070  0.30594407  0.38995868    -0.01600
C1758       C  0.35521398  0.29554328  0.38554597    -0.10800
C1759       C  0.37359916  0.24178342  0.39229229     0.05700
H1760       H  0.40623093  0.26731145  0.41170655     0.07600
H1761       H  0.40744402  0.30319954  0.40395092     0.11100
H1762       H  0.34107393  0.30329144  0.37710228     0.11400
H1763       H  0.33996178  0.26723236  0.38187619     0.07700
C1764       C  0.35541545  0.22989133  0.39939080    -0.11500
C1765       C  0.35556050  0.20940433  0.39085012    -0.10700
C1766       C  0.37386435  0.20034632  0.37486437    -0.01700
C1767       C  0.39221015  0.21207219  0.36943808    -0.11800
C1768       C  0.39209250  0.23234227  0.37791832    -0.10200
H1769       H  0.34090854  0.23645157  0.41088420     0.07700
H1770       H  0.34113113  0.20086330  0.39522864     0.11400
H1771       H  0.40666373  0.20566659  0.35728659     0.11100
H1772       H  0.40634791  0.24073311  0.37123340     0.07700
C1773       C  0.37061250  0.10999690  0.62425746    -0.11400
C1774       C  0.37659983  0.12615221  0.60155877     0.05700
C1775       C  0.38221071  0.14408701  0.61913225    -0.10200
C1776       C  0.38118199  0.14612091  0.65846270    -0.11900
C1777       C  0.37461316  0.13021731  0.68131260    -0.01600
C1778       C  0.36964869  0.11200464  0.66384202    -0.10800
C1779       C  0.37624326  0.12473945  0.55964855     0.05700
H1780       H  0.38737613  0.15661975  0.60238520     0.07600
H1781       H  0.38560359  0.16023490  0.67092740     0.11100
H1782       H  0.36481006  0.09939981  0.68067996     0.11400
H1783       H  0.36615570  0.09599106  0.61138971     0.07700
C1784       C  0.38390653  0.10782541  0.54029669    -0.11500
C1785       C  0.38295006  0.10648248  0.50082357    -0.10700
C1786       C  0.37436830  0.12204953  0.47995450    -0.01700
C1787       C  0.36715786  0.13912721  0.49923153    -0.11800
C1788       C  0.36797782  0.14040823  0.53871257    -0.10200
H1789       H  0.39064503  0.09567132  0.55566662     0.07700
H1790       H  0.38880414  0.09318040  0.48662285     0.11400
H1791       H  0.36025298  0.15121975  0.48392144     0.11100
H1792       H  0.36165648  0.15350413  0.55297439     0.07700
C1793       C  0.37527418  0.10649842  0.04094296    -0.11400
C1794       C  0.37418099  0.12499197  0.05958601     0.05700
C1795       C  0.37220824  0.14211185  0.03755679    -0.10200
C1796       C  0.37093983  0.14072045  0.99799029    -0.11900
C1797       C  0.37144783  0.12216087  0.97952887    -0.01600
C1798       C  0.37388834  0.10509759  0.00149839    -0.10800
C1799       C  0.37498465  0.12640934  0.10178710     0.05700
H1800       H  0.37111643  0.15660173  0.05095377     0.07600
H1801       H  0.36907281  0.15414513  0.98197712     0.11100
H1802       H  0.37464507  0.09055188  0.98823348     0.11400
H1803       H  0.37729439  0.09305855  0.05682874     0.07700
C1804       C  0.36495895  0.11211931  0.12495947    -0.11500
C1805       C  0.36562682  0.11365585  0.16462465    -0.10700
C1806       C  0.37609034  0.12965571  0.18194814    -0.01700
C1807       C  0.38616511  0.14384567  0.15879532    -0.11800
C1808       C  0.38572301  0.14218916  0.11929851    -0.10200
H1809       H  0.35628024  0.09990983  0.11246724     0.07700
H1810       H  0.35764360  0.10254441  0.18171378     0.11400
H1811       H  0.39464757  0.15620021  0.17124641     0.11100
H1812       H  0.39400782  0.15321203  0.10246646     0.07700
C1813       C  0.26992098  0.10181057  0.38787537    -0.11400
C1814       C  0.25896385  0.11857121  0.37559679     0.05700
C1815       C  0.27090029  0.13504263  0.36327389    -0.10200
C1816       C  0.29322367  0.13467421  0.36295264    -0.11900
C1817       C  0.30414012  0.11778669  0.37480025    -0.01600
C1818       C  0.29214181  0.10140751  0.38741863    -0.10800
C1819       C  0.23522370  0.11865754  0.37550300     0.05700
H1820       H  0.26299453  0.14810360  0.35319317     0.07600
H1821       H  0.30192302  0.14751105  0.35290920     0.11100
H1822       H  0.29991804  0.08817224  0.39704311     0.11400
H1823       H  0.26131305  0.08899121  0.39824124     0.07700
C1824       C  0.22401377  0.10139114  0.36563231    -0.11500
C1825       C  0.20181331  0.10109599  0.36655765    -0.10700
C1826       C  0.19008274  0.11808784  0.37721381    -0.01700
C1827       C  0.20121957  0.13549157  0.38656086    -0.11800
C1828       C  0.22354463  0.13576243  0.38574058    -0.10200
H1829       H  0.23241188  0.08805830  0.35684963     0.07700
H1830       H  0.19385277  0.08744892  0.35880006     0.11400
H1831       H  0.19270753  0.14884028  0.39487756     0.11100
H1832       H  0.23165575  0.14926404  0.39386430     0.07700
C1833       C  0.34604911  0.77492678  0.63141991    -0.11400
C1834       C  0.36434943  0.76297181  0.63191290     0.05700
C1835       C  0.38439262  0.77211017  0.62960482    -0.10200
C1836       C  0.38614722  0.79278156  0.62989559    -0.11900
C1837       C  0.36789714  0.80483492  0.63151871    -0.01600
C1838       C  0.34780858  0.79569406  0.63067309    -0.10800
C1839       C  0.36289026  0.74152780  0.64088939     0.05700
H1840       H  0.39872898  0.76327969  0.63036300     0.07600
H1841       H  0.40185038  0.79938805  0.63070370     0.11100
H1842       H  0.33349530  0.80457774  0.63235897     0.11400
H1843       H  0.33040973  0.76820738  0.63336827     0.07700
C1844       C  0.35369073  0.73576977  0.67575909    -0.11500
C1845       C  0.35550906  0.71624811  0.68813660    -0.10700
C1846       C  0.36598928  0.70187185  0.66540596    -0.01700
C1847       C  0.37411636  0.70729966  0.62948266    -0.11800
C1848       C  0.37291877  0.72705453  0.61760420    -0.10200
H1849       H  0.34612827  0.74666798  0.69442817     0.07700
H1850       H  0.34912935  0.71245238  0.71594375     0.11400
H1851       H  0.38241444  0.69652207  0.61157047     0.11100
H1852       H  0.38030327  0.73116342  0.59074466     0.07700
C1853       C  0.38095034  0.97859949  0.75173942    -0.11400
C1854       C  0.37230366  0.99434824  0.73147009     0.05700
C1855       C  0.36360296  0.99031576  0.69589912    -0.10200
C1856       C  0.36293779  0.97088918  0.68146416    -0.11900
C1857       C  0.37133408  0.95506332  0.70190708    -0.01600
C1858       C  0.38067616  0.95920439  0.73695789    -0.10800
C1859       C  0.37134706  0.01469095  0.74834978     0.05700
H1860       H  0.35672957  0.00212524  0.67977799     0.07600
H1861       H  0.35577072  0.96824724  0.65423973     0.11100
H1862       H  0.38732858  0.94739262  0.75336381     0.11400
H1863       H  0.38786236  0.98132045  0.77915818     0.07700
C1864       C  0.36291024  0.01758662  0.78524550    -0.11500
C1865       C  0.36172417  0.03657134  0.80154400    -0.10700
C1866       C  0.36933306  0.05320412  0.78170501    -0.01700
C1867       C  0.37769801  0.05035429  0.74457345    -0.11800
C1868       C  0.37847800  0.03130700  0.72791938    -0.10200
H1869       H  0.35700843  0.00511105  0.80141354     0.07700
H1870       H  0.35511878  0.03816901  0.83009569     0.11400
H1871       H  0.38354415  0.06283851  0.72837916     0.11100
H1872       H  0.38498123  0.02949480  0.69933489     0.07700
C1873       C  0.38272726  0.77173673  0.12185954    -0.11400
C1874       C  0.36252299  0.76396531  0.13074426     0.05700
C1875       C  0.34520032  0.77699069  0.13521526    -0.10200
C1876       C  0.34823435  0.79752494  0.13225394    -0.11900
C1877       C  0.36874463  0.80532629  0.12598751    -0.01600
C1878       C  0.38585801  0.79221778  0.12003207    -0.10800
C1879       C  0.36044013  0.74277418  0.14070205     0.05700
H1880       H  0.32952489  0.77130826  0.14253934     0.07600
H1881       H  0.33487851  0.80733593  0.13777660     0.11100
H1882       H  0.40186146  0.79788493  0.11575302     0.11400
H1883       H  0.39635876  0.76201041  0.11891819     0.07700
C1884       C  0.36657270  0.72767312  0.11483091    -0.11500
C1885       C  0.36769133  0.70791277  0.12658354    -0.10700
C1886       C  0.36337445  0.70312702  0.16468402    -0.01700
C1887       C  0.35643725  0.71817857  0.19003144    -0.11800
C1888       C  0.35478838  0.73773789  0.17808438    -0.10200
H1889       H  0.37111830  0.73128589  0.08589785     0.07700
H1890       H  0.37313074  0.69661381  0.10653565     0.11400
H1891       H  0.35290453  0.71489461  0.21952901     0.11100
H1892       H  0.35025280  0.74914062  0.19862302     0.07700
C1893       C  0.37684657  0.90267561  0.95383938    -0.11400
C1894       C  0.37383125  0.88455764  0.93468899     0.05700
C1895       C  0.37010567  0.86743556  0.95632100    -0.10200
C1896       C  0.36979005  0.86834065  0.99598229    -0.11900
C1897       C  0.37290074  0.88644364  0.01506052    -0.01600
C1898       C  0.37631075  0.90361627  0.99348225    -0.10800
C1899       C  0.37497920  0.88331322  0.89243089     0.05700
H1900       H  0.36717222  0.85328681  0.94262513     0.07600
H1901       H  0.36676319  0.85490708  0.01166909     0.11100
H1902       H  0.37868319  0.91786083  0.00721849     0.11400
H1903       H  0.37999673  0.91611135  0.93826162     0.07700
C1904       C  0.36741243  0.89870221  0.86976331    -0.11500
C1905       C  0.36802132  0.89690484  0.83003253    -0.10700
C1906       C  0.37593913  0.87958244  0.81230397    -0.01700
C1907       C  0.38402515  0.86454297  0.83498235    -0.11800
C1908       C  0.38368092  0.86643423  0.87436430    -0.10200
H1909       H  0.36053965  0.91191805  0.88266908     0.07700
H1910       H  0.36181984  0.90880659  0.81329753     0.11400
H1911       H  0.39072370  0.85118794  0.82227262     0.11100
H1912       H  0.39035128  0.85459909  0.89065550     0.07700
C1913       C  0.36487573  0.88959366  0.36998679    -0.11400
C1914       C  0.37138155  0.87370696  0.39232899     0.05700
C1915       C  0.37827127  0.85615825  0.37407088    -0.10200
C1916       C  0.37903880  0.85470422  0.33445551    -0.11900
C1917       C  0.37312704  0.87083735  0.31217751    -0.01600
C1918       C  0.36582893  0.88821142  0.33042835    -0.10800
C1919       C  0.37118134  0.87567589  0.43442657     0.05700
H1920       H  0.38357125  0.84370545  0.39033674     0.07600
H1921       H  0.38474544  0.84107214  0.32131123     0.11100
H1922       H  0.36089729  0.90080479  0.31415313     0.11400
H1923       H  0.35895808  0.90315453  0.38307822     0.07700
C1924       C  0.37644414  0.89385874  0.45161049    -0.11500
C1925       C  0.37522210  0.89624078  0.49093266    -0.10700
C1926       C  0.36898944  0.88042841  0.51428475    -0.01700
C1927       C  0.36443131  0.86200742  0.49734769    -0.11800
C1928       C  0.36543605  0.85967217  0.45777577    -0.10200
H1929       H  0.38153369  0.90633151  0.43464993     0.07700
H1930       H  0.37917415  0.91056404  0.50305046     0.11400
H1931       H  0.35955564  0.84956497  0.51458763     0.11100
H1932       H  0.36115043  0.84549046  0.44547053     0.07700
C1933       C  0.36657180  0.01628665  0.29580906    -0.11400
C1934       C  0.37383465  0.01246735  0.25838711     0.05700
C1935       C  0.38048472  0.02859620  0.23603026    -0.10200
C1936       C  0.37999159  0.04801248  0.25082159    -0.11900
C1937       C  0.37242538  0.05180451  0.28806713    -0.01600
C1938       C  0.36571703  0.03569271  0.31033946    -0.10800
C1939       C  0.37387679  0.99181911  0.24248910     0.05700
H1940       H  0.38625749  0.02616346  0.20713960     0.07600
H1941       H  0.38522904  0.06008519  0.23293616     0.11100
H1942       H  0.35989367  0.03807899  0.33922351     0.11400
H1943       H  0.36111861  0.00427386  0.31364380     0.07700
C1944       C  0.38093467  0.97572137  0.26384991    -0.11500
C1945       C  0.38045392  0.95629449  0.24894747    -0.10700
C1946       C  0.37250418  0.95249346  0.21262478    -0.01700
C1947       C  0.36553785  0.96862945  0.19135311    -0.11800
C1948       C  0.36634540  0.98799276  0.20593925    -0.10200
H1949       H  0.38697782  0.97818819  0.29201785     0.07700
H1950       H  0.38596942  0.94423787  0.26604821     0.11400
H1951       H  0.35946320  0.96629855  0.16316195     0.11100
H1952       H  0.36061433  0.99996730  0.18885800     0.07700
C1953       C  0.14020658  0.76959086  0.60478251    -0.11400
C1954       C  0.12165957  0.75797670  0.60029039     0.05700
C1955       C  0.10324650  0.76759393  0.58825017    -0.10200
C1956       C  0.10335521  0.78782136  0.58023866    -0.11900
C1957       C  0.12180979  0.79943110  0.58413230    -0.01600
C1958       C  0.14024386  0.79011090  0.59703799    -0.10800
C1959       C  0.12121323  0.73589241  0.60646396     0.05700
H1960       H  0.08874660  0.75934000  0.58360934     0.07600
H1961       H  0.08886678  0.79436838  0.57021548     0.11100
H1962       H  0.15482645  0.79850084  0.59987748     0.11400
H1963       H  0.15470953  0.76281893  0.61414065     0.07700
C1964       C  0.13857030  0.72366564  0.59574210    -0.11500
C1965       C  0.13699607  0.70285099  0.59767804    -0.10700
C1966       C  0.11801045  0.69364318  0.61034935    -0.01700
C1967       C  0.10099854  0.70592290  0.62241062    -0.11800
C1968       C  0.10260999  0.72660907  0.62070386    -0.10200
H1969       H  0.15314043  0.73012827  0.58448252     0.07700
H1970       H  0.15050035  0.69395938  0.58837053     0.11400
H1971       H  0.08621367  0.69954574  0.63296563     0.11100
H1972       H  0.08905324  0.73535871  0.63025732     0.07700
C1973       C  0.10900033  0.97617174  0.47593533    -0.11400
C1974       C  0.11994062  0.99104222  0.49598137     0.05700
C1975       C  0.13201625  0.98548229  0.52704807    -0.10200
C1976       C  0.13333290  0.96552968  0.53750878    -0.11900
C1977       C  0.12236032  0.95057453  0.51752306    -0.01600
C1978       C  0.11004104  0.95623484  0.48673761    -0.10800
C1979       C  0.11966630  0.01206268  0.48315091     0.05700
H1980       H  0.14082659  0.99654278  0.54274019     0.07600
H1981       H  0.14296726  0.96183193  0.56141767     0.11100
H1982       H  0.10128384  0.94523582  0.47081795     0.11400
H1983       H  0.09954755  0.98002387  0.45187903     0.07700
C1984       C  0.12514542  0.01645381  0.44535436    -0.11500
C1985       C  0.12562622  0.03605296  0.43291752    -0.10700
C1986       C  0.12020611  0.05191304  0.45764952    -0.01700
C1987       C  0.11429144  0.04756270  0.49543429    -0.11800
C1988       C  0.11432397  0.02784859  0.50818850    -0.10200
H1989       H  0.12948344  0.00467458  0.42549743     0.07700
H1990       H  0.13019902  0.03879593  0.40362006     0.11400
H1991       H  0.11011102  0.05939952  0.51525359     0.11100
H1992       H  0.11000787  0.02489485  0.53751152     0.07700
C1993       C  0.26671714  0.90196152  0.61379868    -0.11400
C1994       C  0.25614454  0.88376862  0.61845667     0.05700
C1995       C  0.26818018  0.86698555  0.62720707    -0.10200
C1996       C  0.29031670  0.86840996  0.63100601    -0.11900
C1997       C  0.30086827  0.88663615  0.62593100    -0.01600
C1998       C  0.28869564  0.90339027  0.61756743    -0.10800
C1999       C  0.23264823  0.88267724  0.61424230     0.05700
H2000       H  0.26046248  0.85280345  0.63134926     0.07600
H2001       H  0.29917996  0.85520154  0.63742135     0.11100
H2002       H  0.29617997  0.91766556  0.61322763     0.11400
H2003       H  0.25801808  0.91512403  0.60646630     0.07700
C2004       C  0.21977717  0.89809388  0.62875182    -0.11500
C2005       C  0.19796044  0.89816750  0.62276772    -0.10700
C2006       C  0.18821971  0.88275396  0.60224233    -0.01700
C2007       C  0.20091375  0.86691952  0.58869994    -0.11800
C2008       C  0.22294834  0.86690340  0.59459188    -0.10200
H2009       H  0.22661230  0.91022409  0.64477439     0.07700
H2010       H  0.18870404  0.91042779  0.63437091     0.11400
H2011       H  0.19390247  0.85476287  0.57301373     0.11100
H2012       H  0.23246783  0.85484223  0.58291191     0.07700
C2013       C  0.10433166  0.76874335  0.08113208    -0.11400
C2014       C  0.12231258  0.75864276  0.09354708     0.05700
C2015       C  0.14074757  0.76993987  0.10106753    -0.10200
C2016       C  0.14099224  0.79074752  0.09648099    -0.11900
C2017       C  0.12284922  0.80067009  0.08395548    -0.01600
C2018       C  0.10457406  0.78924272  0.07659651    -0.10800
C2019       C  0.12124268  0.73653939  0.09874191     0.05700
H2020       H  0.15491653  0.76272664  0.11079807     0.07600
H2021       H  0.15543051  0.79895806  0.10192690     0.11100
H2022       H  0.09026108  0.79614144  0.06664619     0.11400
H2023       H  0.08998390  0.76074062  0.07414019     0.07700
C2024       C  0.10227430  0.72765648  0.11230556    -0.11500
C2025       C  0.10044377  0.70707703  0.11552032    -0.10700
C2026       C  0.11755205  0.69448751  0.10554149    -0.01700
C2027       C  0.13671269  0.70327341  0.09250960    -0.11800
C2028       C  0.13853003  0.72401686  0.08914672    -0.10200
H2029       H  0.08869620  0.73665893  0.12073610     0.07700
H2030       H  0.08545880  0.70103626  0.12590707     0.11400
H2031       H  0.15022969  0.69410856  0.08442034     0.11100
H2032       H  0.15331626  0.73020649  0.07821167     0.07700
C2033       C  0.11048642  0.89072088  0.76154657    -0.11400
C2034       C  0.11606181  0.87286310  0.77842746     0.05700
C2035       C  0.12088556  0.85633680  0.75499418    -0.10200
C2036       C  0.12092973  0.85790359  0.71545039    -0.11900
C2037       C  0.11628110  0.87606087  0.69867660    -0.01600
C2038       C  0.11061773  0.89231057  0.72222033    -0.10800
C2039       C  0.11708754  0.87164745  0.82029770     0.05700
H2040       H  0.12535971  0.84237372  0.76717419     0.07600
H2041       H  0.12541563  0.84515271  0.69811233     0.11100
H2042       H  0.10669854  0.90649168  0.71029072     0.11400
H2043       H  0.10613727  0.90355927  0.77874605     0.07700
C2044       C  0.12490501  0.88763911  0.84194517    -0.11500
C2045       C  0.12568326  0.88651388  0.88143910    -0.10700
C2046       C  0.11888046  0.86929018  0.89998624    -0.01700
C2047       C  0.11113738  0.85331116  0.87827672    -0.11800
C2048       C  0.11018778  0.85450650  0.83895479    -0.10200
H2049       H  0.13064337  0.90096531  0.82833168     0.07700
H2050       H  0.13170831  0.89905694  0.89737405     0.11400
H2051       H  0.10547376  0.83989623  0.89168646     0.11100
H2052       H  0.10371590  0.84209923  0.82322709     0.07700
C2053       C  0.13097522  0.89234078  0.34292750    -0.11400
C2054       C  0.12245701  0.87730509  0.31966897     0.05700
C2055       C  0.11263287  0.86096268  0.33687395    -0.10200
C2056       C  0.11173505  0.85939363  0.37623857    -0.34300
C2057       C  0.12061134  0.87413816  0.39965260    -0.01600
C2058       C  0.13001014  0.89080102  0.38260730    -0.10800
C2059       C  0.12360606  0.87853970  0.27760724     0.05700
H2060       H  0.10545302  0.84939884  0.31985684     0.07600
H2061       H  0.10397347  0.84652735  0.38834775     0.11100
H2062       H  0.13693559  0.90241403  0.39984166     0.11400
H2063       H  0.13873304  0.90510083  0.33042205     0.07700
C2064       C  0.11981215  0.89654341  0.25968060    -0.11500
C2065       C  0.12061287  0.89766153  0.22016107    -0.10700
C2066       C  0.12522767  0.88079070  0.19749771    -0.01700
C2067       C  0.12886889  0.86271876  0.21539016    -0.11800
C2068       C  0.12809447  0.86161581  0.25503047    -0.10200
H2069       H  0.11595238  0.90974004  0.27621517     0.07700
H2070       H  0.11759239  0.91183217  0.20737655     0.11400
H2071       H  0.13264710  0.84951273  0.19882292     0.11100
H2072       H  0.13131754  0.84755260  0.26806289     0.07700
C2073       C  0.12825107  0.98552158  0.02059743    -0.11400
C2074       C  0.11910898  0.98997053  0.98586231     0.05700
C2075       C  0.11222604  0.97423135  0.96256387    -0.10200
C2076       C  0.11420096  0.95445490  0.97415183    -0.11900
C2077       C  0.12366656  0.94999990  0.00879380    -0.01600
C2078       C  0.13070935  0.96583781  0.03171696    -0.10800
C2079       C  0.11793988  0.01096894  0.97349328     0.05700
H2080       H  0.10521091  0.97726841  0.93551965     0.07600
H2081       H  0.10858811  0.94265965  0.95582530     0.11100
H2082       H  0.13796759  0.96302851  0.05864176     0.11400
H2083       H  0.13391261  0.99733113  0.03885594     0.07700
C2084       C  0.10732047  0.02544693  0.99597033    -0.11500
C2085       C  0.10778637  0.04551894  0.98565166    -0.10700
C2086       C  0.11933550  0.05158913  0.95310168    -0.01700
C2087       C  0.12968310  0.03694944  0.93048825    -0.11800
C2088       C  0.12883534  0.01693000  0.94036376    -0.10200
H2089       H  0.09878425  0.02120841  0.02168424     0.07700
H2090       H  0.09952400  0.05631383  0.00355801     0.11400
H2091       H  0.13859318  0.04097171  0.90503308     0.11100
H2092       H  0.13728950  0.00613858  0.92271411     0.07700
C2093       C  0.22741204  0.86680347  0.08255946    -0.11400
C2094       C  0.23770056  0.88297408  0.10000842     0.05700
C2095       C  0.22536456  0.89911399  0.11286018    -0.10200
C2096       C  0.20358052  0.89948907  0.10755924    -0.11900
C2097       C  0.19315461  0.88353533  0.08993740    -0.01600
C2098       C  0.20526494  0.86704562  0.07770088    -0.10800
C2099       C  0.26115166  0.88363358  0.10485441     0.05700
H2100       H  0.23250681  0.91153450  0.12756251     0.07600
H2101       H  0.19483746  0.91230717  0.11809333     0.11100
H2102       H  0.19768148  0.85447702  0.06421667     0.11400
H2103       H  0.23647832  0.85414800  0.07222339     0.07700
C2104       C  0.27278098  0.86674953  0.11456198    -0.11500
C2105       C  0.29462621  0.86819770  0.12150129    -0.10700
C2106       C  0.30517325  0.88657543  0.11903193    -0.01700
C2107       C  0.29351448  0.90328715  0.10880473    -0.11800
C2108       C  0.27195387  0.90179301  0.10143760    -0.10200
H2109       H  0.26494412  0.85254784  0.11755516     0.07700
H2110       H  0.30322077  0.85497146  0.12881105     0.11400
H2111       H  0.30109289  0.91762065  0.10589501     0.11100
H2112       H  0.26373356  0.91500344  0.09289347     0.07700
C2113       C  0.47276925  0.14955162  0.79431131    -0.11400
C2114       C  0.48309173  0.13177580  0.78425313     0.05700
C2115       C  0.47082257  0.11450509  0.77954645    -0.10200
C2116       C  0.44855981  0.11526192  0.78328499    -0.11900
C2117       C  0.43827191  0.13330830  0.79176660    -0.01600
C2118       C  0.45070200  0.15032010  0.79796823    -0.10800
C2119       C  0.50651419  0.13176330  0.77770069     0.05700
H2120       H  0.47838073  0.10059865  0.77175014     0.07600
H2121       H  0.43940561  0.10191180  0.77836223     0.11100
H2122       H  0.44336007  0.16441502  0.80514494     0.11400
H2123       H  0.48179842  0.16299507  0.79907845     0.07700
C2124       C  0.51625779  0.14752430  0.75825798    -0.11500
C2125       C  0.53832439  0.14864688  0.75423509    -0.10700
C2126       C  0.55128735  0.13393832  0.76922506    -0.01700
C2127       C  0.54158364  0.11774181  0.78754571    -0.11800
C2128       C  0.51936361  0.11667704  0.79177987    -0.10200
H2129       H  0.50676982  0.15914271  0.74633303     0.07700
H2130       H  0.54525117  0.16117793  0.73953794     0.11400
H2131       H  0.55116920  0.10621341  0.79952965     0.11100
H2132       H  0.51227928  0.10441310  0.80705409     0.07700
C2133       C  0.60352771  0.27560724  0.82432462    -0.11400
C2134       C  0.62127037  0.26644255  0.84008721     0.05700
C2135       C  0.63856657  0.27853665  0.85049386    -0.10200
C2136       C  0.63813791  0.29912802  0.84479484    -0.11900
C2137       C  0.62044968  0.30803571  0.82844308    -0.01600
C2138       C  0.60306878  0.29600063  0.81889176    -0.10800
C2139       C  0.62159431  0.24435732  0.84409258     0.05700
H2140       H  0.65246419  0.27212358  0.86294137     0.07600
H2141       H  0.65184342  0.30797254  0.85220951     0.11100
H2142       H  0.58916365  0.30228071  0.80615630     0.11400
H2143       H  0.59009867  0.26698443  0.81484438     0.07700
C2144       C  0.60243040  0.23390865  0.85036502    -0.11500
C2145       C  0.60184225  0.21327998  0.84805308    -0.10700
C2146       C  0.62047256  0.20239477  0.84079988    -0.01700
C2147       C  0.63996159  0.21250977  0.83754165    -0.11800
C2148       C  0.64051196  0.23333113  0.83884724    -0.10200
H2149       H  0.58762126  0.24166707  0.85593661     0.07700
H2150       H  0.58662335  0.20579803  0.85073426     0.11400
H2151       H  0.65451187  0.20440795  0.83134863     0.11100
H2152       H  0.65557412  0.24072570  0.83367639     0.07700
C2153       C  0.52320425  0.11601474  0.28865994    -0.11400
C2154       C  0.51012838  0.13151268  0.27693689     0.05700
C2155       C  0.51970002  0.14823111  0.26031605    -0.10200
C2156       C  0.54176895  0.14991273  0.25720597    -0.11900
C2157       C  0.55491502  0.13478577  0.27010934    -0.01600
C2158       C  0.54541524  0.11762277  0.28521504    -0.10800
C2159       C  0.48668154  0.13105280  0.28365257     0.05700
H2160       H  0.51007702  0.16019977  0.25004355     0.07600
H2161       H  0.54854054  0.16316444  0.24479379     0.11100
H2162       H  0.55514555  0.10569029  0.29532686     0.11400
H2163       H  0.51630529  0.10298038  0.30166050     0.07700
C2164       C  0.47456217  0.11378953  0.27751886    -0.11500
C2165       C  0.45228125  0.11422205  0.28188712    -0.10700
C2166       C  0.44183014  0.13194181  0.29231536    -0.01700
C2167       C  0.45412851  0.14886173  0.29999589    -0.11800
C2168       C  0.47618343  0.14840283  0.29584503    -0.10200
H2169       H  0.48222489  0.10017657  0.26816579     0.07700
H2170       H  0.44322353  0.10094881  0.27579296     0.11400
H2171       H  0.44666150  0.16267663  0.30875012     0.11100
H2172       H  0.48505417  0.16178483  0.30196545     0.07700
C2173       C  0.64442178  0.23478371  0.34606910    -0.11400
C2174       C  0.62526662  0.24517128  0.35321338     0.05700
C2175       C  0.60657287  0.23409445  0.36009408    -0.10200
C2176       C  0.60646715  0.21355923  0.35521134    -0.11900
C2177       C  0.62519430  0.20341891  0.34496355    -0.01600
C2178       C  0.64439722  0.21403085  0.34229611    -0.10800
C2179       C  0.62396042  0.26712403  0.34812112     0.05700
H2180       H  0.59165667  0.24137322  0.36721585     0.07600
H2181       H  0.59149542  0.20564742  0.35774210     0.11100
H2182       H  0.65903196  0.20648977  0.33417082     0.11400
H2183       H  0.65914758  0.24269063  0.34058946     0.07700
C2184       C  0.64100512  0.28003534  0.35628491    -0.11500
C2185       C  0.64007333  0.30023478  0.34692154    -0.10700
C2186       C  0.62217909  0.30775331  0.32891242    -0.01700
C2187       C  0.60492991  0.29505470  0.32236240    -0.11800
C2188       C  0.60580788  0.27513639  0.33164161    -0.10200
H2189       H  0.65518877  0.27448207  0.36921182     0.07700
H2190       H  0.65362980  0.30971056  0.35218106     0.11400
H2191       H  0.59085000  0.30042670  0.30874095     0.11100
H2192       H  0.59251155  0.26585434  0.32392300     0.07700
C2193       C  0.61694221  0.14631690  0.50807112    -0.11400
C2194       C  0.62185287  0.13019107  0.53120221     0.05700
C2195       C  0.62774466  0.11214306  0.51378543    -0.10200
C2196       C  0.62849426  0.11011573  0.47445548    -0.11900
C2197       C  0.62377013  0.12618291  0.45126525    -0.01600
C2198       C  0.61798877  0.14435370  0.46843069    -0.10800
C2199       C  0.62085085  0.13190358  0.57331654     0.05700
H2200       H  0.63215152  0.09955863  0.53053795     0.07600
H2201       H  0.63324751  0.09596079  0.46222465     0.11100
H2202       H  0.61416710  0.15697582  0.45127875     0.11400
H2203       H  0.61206680  0.16036997  0.52055392     0.07700
C2204       C  0.62697660  0.14945599  0.59195154    -0.11500
C2205       C  0.62613208  0.15080050  0.63157391    -0.10700
C2206       C  0.61940421  0.13454497  0.65343580    -0.01700
C2207       C  0.61354096  0.11695961  0.63488315    -0.11800
C2208       C  0.61405563  0.11571756  0.59531757    -0.10200
H2209       H  0.63264493  0.16208038  0.57598869     0.07700
H2210       H  0.63085545  0.16455554  0.64512222     0.11400
H2211       H  0.60801680  0.10430354  0.65093421     0.11100
H2212       H  0.60877713  0.10210453  0.58197632     0.07700
C2213       C  0.62509235  0.14862454  0.09131344    -0.11400
C2214       C  0.62179573  0.13017282  0.07342630     0.05700
C2215       C  0.61816043  0.11350564  0.09637572    -0.10200
C2216       C  0.61802471  0.11523537  0.13600302    -0.11900
C2217       C  0.62116087  0.13372754  0.15368295    -0.01600
C2218       C  0.62463411  0.15039410  0.13084931    -0.10800
C2219       C  0.62251224  0.12829356  0.03113246     0.05700
H2220       H  0.61510571  0.09910661  0.08380312     0.07600
H2221       H  0.61504935  0.10215498  0.15277753     0.11100
H2222       H  0.62720095  0.16486833  0.14354094     0.11400
H2223       H  0.62838045  0.16173348  0.07484290     0.07700
C2224       C  0.61561986  0.14382201  0.00815654    -0.11500
C2225       C  0.61675117  0.14210112  0.96850796    -0.10700
C2226       C  0.62451735  0.12470527  0.95083138    -0.01700
C2227       C  0.63127464  0.10917028  0.97374947    -0.11800
C2228       C  0.63041919  0.11098593  0.01327021    -0.10200
H2229       H  0.60907308  0.15725867  0.02072229     0.07700
H2230       H  0.61129044  0.15430516  0.95172544     0.11400
H2231       H  0.63749398  0.09559528  0.96115148     0.11100
H2232       H  0.63633794  0.09887687  0.02975083     0.07700
C2233       C  0.96963191  0.14503638  0.96688215    -0.11400
C2234       C  0.98119473  0.12931828  0.94994709     0.05700
C2235       C  0.97005313  0.11427435  0.93084211    -0.10200
C2236       C  0.94790922  0.11540757  0.92754452    -0.11900
C2237       C  0.93659119  0.13167317  0.94304312    -0.01600
C2238       C  0.94769191  0.14629055  0.96320848    -0.10800
C2239       C  0.00482899  0.12952879  0.95080380     0.05700
H2240       H  0.97849843  0.10199060  0.91744761     0.07600
H2241       H  0.93973061  0.10381943  0.91213177     0.11100
H2242       H  0.93941340  0.15876894  0.97628827     0.11400
H2243       H  0.97760451  0.15655675  0.98281369     0.07700
C2244       C  0.01566599  0.14760579  0.94689583    -0.11500
C2245       C  0.03766416  0.14854810  0.94943524    -0.10700
C2246       C  0.04964680  0.13138941  0.95534595    -0.01700
C2247       C  0.03902084  0.11308867  0.95798005    -0.11800
C2248       C  0.01674336  0.11217344  0.95586634    -0.10200
H2249       H  0.00711731  0.16115504  0.94168698     0.07700
H2250       H  0.04532629  0.16283923  0.94636794     0.11400
H2251       H  0.04786186  0.09960673  0.96231126     0.11100
H2252       H  0.00883749  0.09800925  0.95896563     0.07700
C2253       C  0.89284278  0.22613368  0.83948138    -0.11400
C2254       C  0.87421931  0.23769202  0.84139079     0.05700
C2255       C  0.85447192  0.22793081  0.84586571    -0.10200
C2256       C  0.85358406  0.20741351  0.85131968    -0.11900
C2257       C  0.87241775  0.19644098  0.85314554    -0.01600
C2258       C  0.89196599  0.20584056  0.84607153    -0.10800
C2259       C  0.87572178  0.25977060  0.84348295     0.05700
H2260       H  0.83977974  0.23622605  0.84775491     0.07600
H2261       H  0.83833806  0.20041994  0.85706914     0.11100
H2262       H  0.90667866  0.19757066  0.84709541     0.11400
H2263       H  0.90828932  0.23287093  0.83462446     0.07700
C2264       C  0.89306971  0.26871354  0.86148516    -0.11500
C2265       C  0.89375435  0.28908962  0.86765301    -0.10700
C2266       C  0.87702749  0.30126944  0.85646809    -0.01700
C2267       C  0.86000232  0.29263661  0.83715207    -0.11800
C2268       C  0.85936108  0.27206800  0.83068475    -0.10200
H2269       H  0.90578143  0.25994634  0.87267226     0.07700
H2270       H  0.90718119  0.29522515  0.88250610     0.11400
H2271       H  0.84686476  0.30165352  0.82827617     0.11100
H2272       H  0.84587006  0.26579864  0.81628774     0.07700
C2273       C  0.72166084  0.13941361  0.84953375    -0.11400
C2274       C  0.73387909  0.12258926  0.83977583     0.05700
C2275       C  0.72374747  0.10611155  0.82343127    -0.10200
C2276       C  0.70177233  0.10581306  0.81969168    -0.11900
C2277       C  0.68937563  0.12209839  0.83167578    -0.01600
C2278       C  0.69956764  0.13920216  0.84533019    -0.10800
C2279       C  0.75688220  0.12160709  0.84806575     0.05700
H2280       H  0.73276335  0.09318767  0.81430273     0.07600
H2281       H  0.69439907  0.09255433  0.80837435     0.11100
H2282       H  0.69037321  0.15197370  0.85472030     0.11400
H2283       H  0.72899232  0.15236253  0.86210843     0.07700
C2284       C  0.77027691  0.13814020  0.84340442    -0.11500
C2285       C  0.79213164  0.13656177  0.84932288    -0.10700
C2286       C  0.80097264  0.11839194  0.85977648    -0.01700
C2287       C  0.78742479  0.10213414  0.86590324    -0.11800
C2288       C  0.76566436  0.10375809  0.86035845    -0.10200
H2289       H  0.76401332  0.15209001  0.83393735     0.07700
H2290       H  0.80219272  0.14934722  0.84430663     0.11400
H2291       H  0.79367838  0.08799199  0.87441596     0.11100
H2292       H  0.75571714  0.09090944  0.86545262     0.07700
C2293       C  0.97339778  0.11626058  0.43134948    -0.11400
C2294       C  0.98453958  0.13232900  0.44712239     0.05700
C2295       C  0.97296282  0.14867658  0.46147991    -0.10200
C2296       C  0.95088410  0.14914517  0.45949402    -0.11900
C2297       C  0.93969602  0.13316913  0.44352265    -0.01600
C2298       C  0.95118409  0.11665773  0.42962126    -0.10800
C2299       C  0.00814100  0.13241061  0.44808798     0.05700
H2300       H  0.98094847  0.16113511  0.47457046     0.07600
H2301       H  0.94259043  0.16208455  0.47064872     0.11100
H2302       H  0.94304609  0.10413800  0.41704517     0.11400
H2303       H  0.98185619  0.10354958  0.41964107     0.07700
C2304       C  0.01964504  0.11506402  0.45534301    -0.11500
C2305       C  0.04187075  0.11559153  0.45736467    -0.10700
C2306       C  0.05289692  0.13352019  0.45258706    -0.01700
C2307       C  0.04137910  0.15070718  0.44455034    -0.11800
C2308       C  0.01935739  0.15013785  0.44213015    -0.10200
H2309       H  0.01145590  0.10118801  0.46030306     0.07700
H2310       H  0.05035053  0.10211819  0.46346357     0.11400
H2311       H  0.04939957  0.16471567  0.43994999     0.11100
H2312       H  0.01112820  0.16364902  0.43537485     0.07700
C2313       C  0.86285523  0.23187319  0.34165485    -0.11400
C2314       C  0.87880001  0.24369849  0.35830386     0.05700
C2315       C  0.89432734  0.23405894  0.37923403    -0.10200
C2316       C  0.89386882  0.21354117  0.38399494    -0.11900
C2317       C  0.87785884  0.20163340  0.36807271    -0.01600
C2318       C  0.86245219  0.21106629  0.34630721    -0.10800
C2319       C  0.87951487  0.26595116  0.35496409     0.05700
H2320       H  0.90666827  0.24247724  0.39304926     0.07600
H2321       H  0.90605980  0.20703068  0.40099387     0.11100
H2322       H  0.84984402  0.20246811  0.33369184     0.11400
H2323       H  0.85070726  0.23870294  0.32503669     0.07700
C2324       C  0.89920256  0.27583327  0.35123007    -0.11500
C2325       C  0.90043078  0.29657107  0.35128561    -0.10700
C2326       C  0.88201819  0.30835805  0.35506188    -0.01700
C2327       C  0.86221135  0.29855393  0.35810074    -0.11800
C2328       C  0.86097542  0.27765219  0.35787927    -0.10200
H2329       H  0.91384209  0.26748657  0.34828891     0.07700
H2330       H  0.91599792  0.30337750  0.34860024     0.11400
H2331       H  0.84764764  0.30703096  0.36077615     0.11100
H2332       H  0.84553320  0.27066169  0.36107614     0.07700
C2333       C  0.86982099  0.10572164  0.60175989    -0.11400
C2334       C  0.86409053  0.12178709  0.62575042     0.05700
C2335       C  0.85846520  0.13976446  0.60924415    -0.10200
C2336       C  0.85964882  0.14200431  0.56993826    -0.11900
C2337       C  0.86643911  0.12630227  0.54595161    -0.01600
C2338       C  0.87098671  0.10795437  0.56224997    -0.10800
C2339       C  0.86476306  0.12018137  0.66780652     0.05700
H2340       H  0.85341574  0.15225088  0.62681670     0.07600
H2341       H  0.85566825  0.15626377  0.55841684     0.11100
H2342       H  0.87620940  0.09554561  0.54462896     0.11400
H2343       H  0.87424997  0.09165743  0.61358429     0.07700
C2344       C  0.85765916  0.10297562  0.68612322    -0.11500
C2345       C  0.85831349  0.10159994  0.72562533    -0.10700
C2346       C  0.86604207  0.11741760  0.74788493    -0.01700
C2347       C  0.87330272  0.13457005  0.72954748    -0.11800
C2348       C  0.87271111  0.13591120  0.68998790    -0.10200
H2349       H  0.85125173  0.09068745  0.66996819     0.07700
H2350       H  0.85241910  0.08819341  0.73875634     0.11400
H2351       H  0.87945993  0.14696156  0.74573940     0.11100
H2352       H  0.87869006  0.14923863  0.67669065     0.07700
C2353       C  0.87597479  0.14248282  0.19009747    -0.11400
C2354       C  0.86571733  0.12785221  0.16835180     0.05700
C2355       C  0.85536409  0.11221498  0.18694453    -0.10200
C2356       C  0.85564746  0.11096759  0.22636770    -0.11900
C2357       C  0.86639005  0.12528814  0.24823570    -0.01600
C2358       C  0.87631287  0.14122024  0.22969812    -0.10800
C2359       C  0.86596136  0.12879570  0.12637027     0.05700
H2360       H  0.84699574  0.10095881  0.17096760     0.07600
H2361       H  0.84752472  0.09861742  0.23967037     0.11100
H2362       H  0.88467599  0.15246943  0.24567624     0.11400
H2363       H  0.88417736  0.15466075  0.17637539     0.07700
C2364       C  0.86233303  0.14682301  0.10844633    -0.11500
C2365       C  0.86303385  0.14791893  0.06894761    -0.10700
C2366       C  0.86734849  0.13098485  0.04634332    -0.01700
C2367       C  0.87081089  0.11286194  0.06430364    -0.11800
C2368       C  0.87007022  0.11177462  0.10394525    -0.10200
H2369       H  0.85886141  0.16009590  0.12502708     0.07700
H2370       H  0.86028676  0.16213411  0.05614295     0.11400
H2371       H  0.87445118  0.09960575  0.04778890     0.11100
H2372       H  0.87316725  0.09771402  0.11710438     0.07700
C2373       C  0.77064813  0.10595881  0.35555385    -0.11400
C2374       C  0.76040662  0.12436473  0.35474905     0.05700
C2375       C  0.77278974  0.14172790  0.35715197    -0.10200
C2376       C  0.79497640  0.14052774  0.36077574    -0.11900
C2377       C  0.80501030  0.12194387  0.36220753    -0.01600
C2378       C  0.79248059  0.10476280  0.35964278    -0.10800
C2379       C  0.73684104  0.12482307  0.35232103     0.05700
H2380       H  0.76532395  0.15614458  0.35671783     0.07600
H2381       H  0.80422632  0.15404642  0.36235486     0.11100
H2382       H  0.79956886  0.09017421  0.35993973     0.11400
H2383       H  0.76176477  0.09229118  0.35263846     0.07700
C2384       C  0.72635295  0.13844209  0.32945367    -0.11500
C2385       C  0.70416781  0.13747991  0.32580374    -0.10700
C2386       C  0.69225363  0.12274072  0.34459582    -0.01700
C2387       C  0.70278833  0.10941617  0.36776877    -0.11800
C2388       C  0.72467081  0.11059882  0.37193737    -0.10200
H2389       H  0.73531450  0.14947904  0.31376601     0.07700
H2390       H  0.69640285  0.14796002  0.30779301     0.11400
H2391       H  0.69403941  0.09814116  0.38323376     0.11100
H2392       H  0.73209943  0.10023366  0.39062481     0.07700
C2393       C  0.84286224  0.77277702  0.58411553    -0.11400
C2394       C  0.86046483  0.75997906  0.58565283     0.05700
C2395       C  0.88069476  0.76835001  0.59049568    -0.10200
C2396       C  0.88349443  0.78900389  0.59106342    -0.11900
C2397       C  0.86607798  0.80188464  0.58770051    -0.01600
C2398       C  0.84559978  0.79351853  0.58571060    -0.10800
C2399       C  0.85851449  0.73845020  0.57574197     0.05700
H2400       H  0.89455507  0.75888808  0.59123289     0.07600
H2401       H  0.89948586  0.79494353  0.59223211     0.11100
H2402       H  0.83191751  0.80297975  0.58235836     0.11400
H2403       H  0.82712350  0.76673101  0.57983754     0.07700
C2404       C  0.86060074  0.72348133  0.60287311    -0.11500
C2405       C  0.86104744  0.70328101  0.59174877    -0.10700
C2406       C  0.86000181  0.69773030  0.55314975    -0.01700
C2407       C  0.85744313  0.71282279  0.52641156    -0.11800
C2408       C  0.85654211  0.73280497  0.53756383    -0.10200
H2409       H  0.86234054  0.72744593  0.63250106     0.07700
H2410       H  0.86322222  0.69211096  0.61303863     0.11400
H2411       H  0.85657864  0.70918563  0.49646415     0.11100
H2412       H  0.85514014  0.74399171  0.51604434     0.07700
C2413       C  0.97458731  0.85285321  0.50672149    -0.11400
C2414       C  0.98535172  0.87079118  0.51342930     0.05700
C2415       C  0.97317627  0.88789998  0.52142759    -0.10200
C2416       C  0.95084331  0.88707083  0.52204920    -0.11900
C2417       C  0.94021478  0.86911226  0.51470261    -0.01600
C2418       C  0.95243447  0.85205321  0.50711312    -0.10800
C2419       C  0.00912323  0.87134707  0.51161656     0.05700
H2420       H  0.98086666  0.90200741  0.52650734     0.07600
H2421       H  0.94192618  0.90048871  0.52810641     0.11100
H2422       H  0.94489511  0.83792115  0.50147337     0.11400
H2423       H  0.98326827  0.83923184  0.50149723     0.07700
C2424       C  0.02085649  0.88372273  0.53596180    -0.11500
C2425       C  0.04319930  0.88318250  0.53514966    -0.10700
C2426       C  0.05414854  0.86998598  0.51054119    -0.01700
C2427       C  0.04250844  0.85800017  0.48574926    -0.11800
C2428       C  0.02035538  0.85885858  0.48589497    -0.10200
H2429       H  0.01280890  0.89340571  0.55636809     0.07700
H2430       H  0.05187764  0.89252115  0.55463961     0.11400
H2431       H  0.05061142  0.84793946  0.46605123     0.11100
H2432       H  0.01203811  0.84960302  0.46579787     0.07700
C2433       C  0.85758139  0.98329043  0.49735540    -0.11400
C2434       C  0.87621868  0.99042568  0.47917038     0.05700
C2435       C  0.89392155  0.97762288  0.47637136    -0.10200
C2436       C  0.89276373  0.95817083  0.49067000    -0.11900
C2437       C  0.87402715  0.95117192  0.50885461    -0.01600
C2438       C  0.85655378  0.96412047  0.51209298    -0.10800
C2439       C  0.87658087  0.01095318  0.46278085     0.05700
H2440       H  0.90854276  0.98252214  0.46254396     0.07600
H2441       H  0.90662535  0.94872465  0.48806732     0.11100
H2442       H  0.84188675  0.95937782  0.52600382     0.11400
H2443       H  0.84371596  0.99268592  0.50068902     0.07700
C2444       C  0.85864649  0.01809530  0.44423585    -0.11500
C2445       C  0.85807800  0.03742008  0.43032343    -0.10700
C2446       C  0.87531479  0.05052453  0.43475806    -0.01700
C2447       C  0.89346092  0.04344808  0.45286984    -0.11800
C2448       C  0.89416962  0.02383713  0.46637161    -0.10200
H2449       H  0.84493736  0.00863429  0.44022115     0.07700
H2450       H  0.84387852  0.04219687  0.41633218     0.11400
H2451       H  0.90716010  0.05299716  0.45625249     0.11100
H2452       H  0.90828162  0.01891255  0.48041721     0.07700
C2453       C  0.86117481  0.72893920  0.10198001    -0.11400
C2454       C  0.87338435  0.74243664  0.08041147     0.05700
C2455       C  0.88419589  0.73547626  0.04754855    -0.10200
C2456       C  0.88319119  0.71560922  0.03670743    -0.11900
C2457       C  0.87129541  0.70193581  0.05829849    -0.01600
C2458       C  0.86018310  0.70880906  0.09105967    -0.10800
C2459       C  0.87480708  0.76389848  0.09050422     0.05700
H2460       H  0.89328065  0.74553256  0.02972676     0.07600
H2461       H  0.89171516  0.71100736  0.01099700     0.11100
H2462       H  0.85088087  0.69864914  0.10827345     0.11400
H2463       H  0.85263463  0.73391273  0.12740470     0.07700
C2464       C  0.85648119  0.77528762  0.09866423    -0.11500
C2465       C  0.85758489  0.79611919  0.09890791    -0.10700
C2466       C  0.87701391  0.80573929  0.09083142    -0.01700
C2467       C  0.89555137  0.79428092  0.08659949    -0.11800
C2468       C  0.89448275  0.77365995  0.08662123    -0.10200
H2469       H  0.84110833  0.76816136  0.10189344     0.07700
H2470       H  0.84304894  0.80460026  0.10222346     0.11400
H2471       H  0.91079941  0.80128511  0.08088289     0.11100
H2472       H  0.90895256  0.76530373  0.08121172     0.07700
C2473       C  0.01992749  0.85805421  0.02686157    -0.11400
C2474       C  0.01058698  0.87585855  0.01595363     0.05700
C2475       C  0.02369683  0.89226045  0.00807528    -0.10200
C2476       C  0.04590092  0.89043944  0.00905665    -0.11900
C2477       C  0.05518196  0.87219575  0.01792895    -0.01600
C2478       C  0.04191899  0.85621571  0.02770550    -0.10800
C2479       C  0.98729794  0.87651044  0.01104996     0.05700
H2480       H  0.01682296  0.90616852  0.99971164     0.07600
H2481       H  0.05577304  0.90302050  0.00152520     0.11100
H2482       H  0.04855176  0.84208933  0.03541300     0.11400
H2483       H  0.01015145  0.84534818  0.03403765     0.07700
C2484       C  0.97729670  0.86074953  0.99215661    -0.11500
C2485       C  0.95522176  0.85976055  0.99074596    -0.10700
C2486       C  0.94256891  0.87460979  0.00794529    -0.01700
C2487       C  0.95256092  0.89098536  0.02515141    -0.11800
C2488       C  0.97480273  0.89192519  0.02670558    -0.10200
H2489       H  0.98661150  0.84890724  0.97908612     0.07700
H2490       H  0.94804442  0.84712829  0.97674563     0.11400
H2491       H  0.94318977  0.90265770  0.03865013     0.11100
H2492       H  0.98217266  0.90422818  0.04142028     0.07700
C2493       C  0.86144752  0.89606011  0.76605252    -0.11400
C2494       C  0.86963981  0.87915327  0.78322532     0.05700
C2495       C  0.87751213  0.86365429  0.75962070    -0.10200
C2496       C  0.87687271  0.86495284  0.71999848    -0.11900
C2497       C  0.86860419  0.88188583  0.70306157    -0.01600
C2498       C  0.86109229  0.89746586  0.72661591    -0.10800
C2499       C  0.86982127  0.87773223  0.82548483     0.05700
H2500       H  0.88437292  0.85056238  0.77169499     0.07600
H2501       H  0.88300202  0.85278906  0.70265807     0.11100
H2502       H  0.85450398  0.91070678  0.71458763     0.11400
H2503       H  0.85487084  0.90814136  0.78303800     0.07700
C2504       C  0.87294173  0.89468369  0.84849149    -0.11500
C2505       C  0.87348470  0.89325827  0.88806148    -0.10700
C2506       C  0.87121778  0.87480756  0.90562152    -0.01700
C2507       C  0.86761511  0.85794835  0.88273601    -0.11800
C2508       C  0.86682840  0.85940227  0.84328228    -0.10200
H2509       H  0.87556919  0.90904362  0.83594994     0.07700
H2510       H  0.87637745  0.90652097  0.90478080     0.11400
H2511       H  0.86557760  0.84350290  0.89529202     0.11100
H2512       H  0.86381420  0.84610762  0.82677135     0.07700
C2513       C  0.87868644  0.86264940  0.25935557    -0.11400
C2514       C  0.86894429  0.87700063  0.28330366     0.05700
C2515       C  0.85856553  0.89301022  0.26687333    -0.10200
C2516       C  0.85844729  0.89494036  0.22752045    -0.11900
C2517       C  0.86862086  0.88084992  0.20358162    -0.01600
C2518       C  0.87846501  0.86451830  0.21992192    -0.10800
C2519       C  0.86988278  0.87543713  0.32522453     0.05700
H2520       H  0.85049354  0.90407231  0.28443839     0.07600
H2521       H  0.85048720  0.90760317  0.21589084     0.11100
H2522       H  0.88640489  0.85339706  0.20229461     0.11400
H2523       H  0.88699639  0.85021866  0.27107593     0.07700
C2524       C  0.86838919  0.85688652  0.34256305    -0.11500
C2525       C  0.86975858  0.85530538  0.38182180    -0.10700
C2526       C  0.87249081  0.87225492  0.40484758    -0.01700
C2527       C  0.87376495  0.89086437  0.38762633    -0.11800
C2528       C  0.87254797  0.89242886  0.34821542    -0.10200
H2529       H  0.86596660  0.84355126  0.32581923     0.07700
H2530       H  0.86858000  0.84072939  0.39412308     0.11400
H2531       H  0.87601150  0.90418710  0.40451150     0.11100
H2532       H  0.87409952  0.90692433  0.33570245     0.07700
C2533       C  0.89168147  0.02767363  0.97845469    -0.11400
C2534       C  0.87960038  0.01194438  0.96377181     0.05700
C2535       C  0.86489793  0.01574584  0.93555930    -0.10200
C2536       C  0.86183240  0.03504466  0.92311453    -0.11900
C2537       C  0.87354760  0.05092128  0.93841175    -0.01600
C2538       C  0.88877403  0.04697782  0.96575398    -0.10800
C2539       C  0.88092497  0.99198369  0.98027243     0.05700
H2540       H  0.85525387  0.00388589  0.92411042     0.07600
H2541       H  0.85009816  0.03753401  0.90174473     0.11100
H2542       H  0.89823976  0.05882491  0.97768952     0.11400
H2543       H  0.90320271  0.02502228  0.00012207     0.07700
C2544       C  0.88317741  0.97495726  0.95714127    -0.11500
C2545       C  0.88303348  0.95609978  0.97330606    -0.10700
C2546       C  0.88015021  0.95400490  0.01276278    -0.01700
C2547       C  0.87823940  0.97113881  0.03571810    -0.11800
C2548       C  0.87874452  0.98988587  0.01967599    -0.10200
H2549       H  0.88489399  0.97626736  0.92662396     0.07700
H2550       H  0.88449648  0.94317974  0.95489342     0.11400
H2551       H  0.87606986  0.97006864  0.06620254     0.11100
H2552       H  0.87673427  0.00278183  0.03801939     0.07700
C2553       C  0.60161485  0.77435282  0.61066715    -0.11400
C2554       C  0.62009698  0.76550366  0.59480026     0.05700
C2555       C  0.63694144  0.77791360  0.58275982    -0.10200
C2556       C  0.63549913  0.79856140  0.58744623    -0.11900
C2557       C  0.61727139  0.80717774  0.60456768    -0.01600
C2558       C  0.60021464  0.79484404  0.61537928    -0.10800
C2559       C  0.62193186  0.74343241  0.59331628     0.05700
H2560       H  0.65134218  0.77166542  0.57015980     0.07600
H2561       H  0.64894191  0.80769916  0.57903369     0.11100
H2562       H  0.58592912  0.80099548  0.62865997     0.11400
H2563       H  0.58845547  0.76541555  0.62106794     0.07700
C2564       C  0.64118967  0.73390266  0.60145065    -0.11500
C2565       C  0.64176856  0.71333222  0.60670368    -0.10700
C2566       C  0.62310600  0.70201560  0.60412003    -0.01700
C2567       C  0.60427733  0.71126508  0.59356674    -0.11800
C2568       C  0.60375116  0.73165503  0.58768144    -0.10200
H2569       H  0.65547289  0.74244204  0.60633194     0.07700
H2570       H  0.65635574  0.70653852  0.61568350     0.11400
H2571       H  0.58964689  0.70282397  0.59185082     0.11100
H2572       H  0.58878220  0.73831069  0.58040379     0.07700
C2573       C  0.47220047  0.89458483  0.68885582    -0.11400
C2574       C  0.48450240  0.87724020  0.68936794     0.05700
C2575       C  0.47417699  0.85883004  0.69088752    -0.10200
C2576       C  0.45210426  0.85770021  0.69280265    -0.11900
C2577       C  0.43966147  0.87496287  0.69305741    -0.01600
C2578       C  0.44992105  0.89346197  0.69074199    -0.10800
C2579       C  0.50804884  0.87796159  0.68917883     0.05700
H2580       H  0.48321805  0.84519877  0.69052552     0.07600
H2581       H  0.44480762  0.84317786  0.69415853     0.11100
H2582       H  0.44077489  0.90702513  0.69092473     0.11400
H2583       H  0.47980677  0.90897609  0.68787073     0.07700
C2584       C  0.51958345  0.89041998  0.66448631    -0.11500
C2585       C  0.54186708  0.88980211  0.66294622    -0.10700
C2586       C  0.55286464  0.87662565  0.68591380    -0.01700
C2587       C  0.54128567  0.86456075  0.71112171    -0.11800
C2588       C  0.51917273  0.86531592  0.71291490    -0.10200
H2589       H  0.51137314  0.90017049  0.64565018     0.07700
H2590       H  0.55045267  0.89916279  0.64306720     0.11400
H2591       H  0.54935266  0.85445356  0.72948814     0.11100
H2592       H  0.51072089  0.85584053  0.73276704     0.07700
C2593       C  0.60906690  0.97952014  0.72944587    -0.11400
C2594       C  0.61421158  0.99587799  0.70663256     0.05700
C2595       C  0.61923550  0.99263026  0.66804825    -0.10200
C2596       C  0.61988010  0.97340969  0.65289808    -0.11900
C2597       C  0.61533986  0.95695298  0.67589715    -0.01600
C2598       C  0.60945898  0.96025626  0.71417016    -0.10800
C2599       C  0.61534549  0.01615937  0.72334841     0.05700
H2600       H  0.62338775  0.00492024  0.64986257     0.07600
H2601       H  0.62431013  0.97143292  0.62319342     0.11100
H2602       H  0.60581148  0.94793276  0.73258076     0.11400
H2603       H  0.60491822  0.98164387  0.75923119     0.07700
C2604       C  0.60645328  0.03244143  0.70503346    -0.11500
C2605       C  0.60790627  0.05156705  0.72080752    -0.10700
C2606       C  0.61857591  0.05481236  0.75491422    -0.01700
C2607       C  0.62761941  0.03848147  0.77290985    -0.11800
C2608       C  0.62593127  0.01941317  0.75743378    -0.10200
H2609       H  0.59817955  0.03032782  0.67871047     0.07700
H2610       H  0.60080399  0.06380399  0.70621776     0.11400
H2611       H  0.63594703  0.04039026  0.79922911     0.11100
H2612       H  0.63322050  0.00721098  0.77185233     0.07700
C2613       C  0.76955926  0.86803707  0.61270500    -0.11400
C2614       C  0.75740936  0.88430098  0.60143533     0.05700
C2615       C  0.76800578  0.90075236  0.58583767    -0.10200
C2616       C  0.79016133  0.90115865  0.58228484    -0.11900
C2617       C  0.80238438  0.88506283  0.59393447    -0.01600
C2618       C  0.79185310  0.86839660  0.60892814    -0.10800
C2619       C  0.73379658  0.88446788  0.60604355     0.05700
H2620       H  0.75912099  0.91336455  0.57622863     0.07600
H2621       H  0.79776684  0.91416757  0.57041890     0.11100
H2622       H  0.80086869  0.85589561  0.61866819     0.11400
H2623       H  0.76185034  0.85524581  0.62519051     0.07700
C2624       C  0.72144604  0.86782922  0.59637066    -0.11500
C2625       C  0.69912933  0.86878982  0.59800462    -0.10700
C2626       C  0.68876583  0.88639410  0.60951788    -0.01700
C2627       C  0.70121300  0.90272526  0.62050755    -0.11800
C2628       C  0.72337434  0.90177492  0.61878247    -0.10200
H2629       H  0.72903417  0.85431798  0.58625380     0.07700
H2630       H  0.69003053  0.85597614  0.58916631     0.11400
H2631       H  0.69383818  0.91649038  0.62979577     0.11100
H2632       H  0.73240495  0.91472572  0.62712030     0.07700
C2633       C  0.60436880  0.73793294  0.10492944    -0.11400
C2634       C  0.62222628  0.74561887  0.08532433     0.05700
C2635       C  0.63847920  0.73237556  0.07339866    -0.10200
C2636       C  0.63727435  0.71214839  0.08272867    -0.11900
C2637       C  0.61995648  0.70497710  0.10462074    -0.01600
C2638       C  0.60327283  0.71801343  0.11438599    -0.10800
C2639       C  0.62431249  0.76759445  0.08159763     0.05700
H2640       H  0.65237064  0.73776252  0.05792666     0.07600
H2641       H  0.65035890  0.70243395  0.07474417     0.11100
H2642       H  0.58960671  0.71295939  0.13095349     0.11400
H2643       H  0.59166447  0.74754611  0.11518088     0.07700
C2644       C  0.60608063  0.77921771  0.07643425    -0.11500
C2645       C  0.60650772  0.79965069  0.08317921    -0.10700
C2646       C  0.62532679  0.80913544  0.09392877    -0.01700
C2647       C  0.64410458  0.79797764  0.09539473    -0.11800
C2648       C  0.64358988  0.77734090  0.08946257    -0.10200
H2649       H  0.59108167  0.77233843  0.06944751     0.07700
H2650       H  0.59183733  0.80795358  0.08175247     0.11400
H2651       H  0.65876140  0.80494561  0.10409007     0.11100
H2652       H  0.65790049  0.76890081  0.09392051     0.07700
C2653       C  0.52223773  0.89404709  0.19181355    -0.11400
C2654       C  0.51005932  0.87702195  0.18388654     0.05700
C2655       C  0.52065396  0.85982655  0.17091076    -0.10200
C2656       C  0.54277649  0.85925259  0.16791039    -0.11900
C2657       C  0.55505098  0.87596093  0.17714579    -0.01600
C2658       C  0.54455554  0.89353678  0.18835171    -0.10800
C2659       C  0.48651942  0.87657357  0.19025811     0.05700
H2660       H  0.51182543  0.84662734  0.16335799     0.07600
H2661       H  0.55031035  0.84555780  0.15861295     0.11100
H2662       H  0.55360291  0.90663246  0.19574843     0.11400
H2663       H  0.51459183  0.90752488  0.20193586     0.07700
C2664       C  0.47675611  0.85935480  0.20444214    -0.11500
C2665       C  0.45469860  0.85791864  0.20800869    -0.10700
C2666       C  0.44164754  0.87375285  0.19799450    -0.01700
C2667       C  0.45130998  0.89139257  0.18543866    -0.11800
C2668       C  0.47356147  0.89277422  0.18151007    -0.10200
H2669       H  0.48619922  0.84681739  0.21267059     0.07700
H2670       H  0.44785528  0.84423661  0.21842133     0.11400
H2671       H  0.44167592  0.90387730  0.17757732     0.11100
H2672       H  0.48055550  0.90625836  0.17052182     0.07700
C2673       C  0.63623900  0.86565455  0.84716050    -0.11400
C2674       C  0.62853844  0.88231970  0.86748115     0.05700
C2675       C  0.61886462  0.89753064  0.84697757    -0.10200
C2676       C  0.61697794  0.89610609  0.80742461    -0.11900
C2677       C  0.62441794  0.87929603  0.78740659    -0.01600
C2678       C  0.63406569  0.86411228  0.80781395    -0.10800
C2679       C  0.63033423  0.88376412  0.90977716     0.05700
H2680       H  0.61227893  0.91040909  0.86155469     0.07600
H2681       H  0.60914040  0.90788579  0.79267464     0.11100
H2682       H  0.64003285  0.85095195  0.79326879     0.11400
H2683       H  0.64410790  0.85378749  0.86155892     0.07700
C2684       C  0.62874535  0.86682713  0.93268708    -0.11500
C2685       C  0.62936316  0.86845800  0.97239699    -0.10700
C2686       C  0.63147455  0.88707140  0.99029526    -0.01700
C2687       C  0.63375050  0.90387975  0.96734793    -0.11800
C2688       C  0.63325427  0.90224282  0.92778134    -0.10200
H2689       H  0.62640460  0.85231209  0.92008710     0.07700
H2690       H  0.62783712  0.85515908  0.98906965     0.11400
H2691       H  0.63579557  0.91845017  0.97993926     0.11100
H2692       H  0.63520116  0.91555480  0.91129899     0.07700
C2693       C  0.61935842  0.86017862  0.34980723    -0.11400
C2694       C  0.62601873  0.87753965  0.36825422     0.05700
C2695       C  0.63088394  0.89434119  0.34645427    -0.10200
C2696       C  0.62885175  0.89378862  0.30694782    -0.11900
C2697       C  0.62207681  0.87636752  0.28857723    -0.01600
C2698       C  0.61740103  0.85959568  0.31056306    -0.10800
C2699       C  0.62734061  0.87808665  0.41018734     0.05700
H2700       H  0.63589548  0.90799529  0.36001656     0.07600
H2701       H  0.63266543  0.90692050  0.29083393     0.11100
H2702       H  0.61216482  0.84589144  0.29747508     0.11400
H2703       H  0.61579627  0.84692880  0.36574034     0.07700
C2704       C  0.61138451  0.86912050  0.43284645    -0.11500
C2705       C  0.61221152  0.87000965  0.47238246    -0.10700
C2706       C  0.62886484  0.88010433  0.49001684    -0.01700
C2707       C  0.64509070  0.88866870  0.46744798    -0.11800
C2708       C  0.64438013  0.88760768  0.42789636    -0.10200
H2709       H  0.59792166  0.86187692  0.41999837     0.07700
H2710       H  0.59939340  0.86348732  0.48913908     0.11400
H2711       H  0.65822444  0.89638384  0.48042462     0.11100
H2712       H  0.65710237  0.89429132  0.41116263     0.07700
C2713       C  0.60685932  0.02926087  0.22531967    -0.11400
C2714       C  0.62400058  0.01643199  0.23123986     0.05700
C2715       C  0.64169437  0.02365644  0.25064050    -0.10200
C2716       C  0.64215649  0.04316041  0.26435478    -0.11900
C2717       C  0.62508856  0.05609167  0.25844294    -0.01600
C2718       C  0.60748322  0.04898227  0.23847097    -0.10800
C2719       C  0.62399587  0.99575130  0.21618930     0.05700
H2720       H  0.65511528  0.01408885  0.25556308     0.07600
H2721       H  0.65597409  0.04813124  0.27957853     0.11100
H2722       H  0.59406684  0.05855338  0.23358974     0.11400
H2723       H  0.59313895  0.02408816  0.21006114     0.07700
C2724       C  0.60715792  0.98259170  0.22441638    -0.11500
C2725       C  0.60770972  0.96295632  0.21048886    -0.10700
C2726       C  0.62494164  0.95627652  0.18748810    -0.01700
C2727       C  0.64168157  0.96960197  0.17939050    -0.11800
C2728       C  0.64128138  0.98897504  0.19375044    -0.10200
H2729       H  0.59371477  0.98745510  0.24193743     0.07700
H2730       H  0.59453681  0.95313752  0.21714512     0.11400
H2731       H  0.65522542  0.96506893  0.16179074     0.11100
H2732       H  0.65441469  0.99881280  0.18685722     0.07700
C2733       C  0.72689752  0.86954707  0.09726103    -0.11400
C2734       C  0.73951671  0.88676646  0.09900434     0.05700
C2735       C  0.72941218  0.90508100  0.10554320    -0.10200
C2736       C  0.70731233  0.90633072  0.10842189    -0.11900
C2737       C  0.69461490  0.88926863  0.10526473    -0.01600
C2738       C  0.70465432  0.87078362  0.10046037    -0.10800
C2739       C  0.76307460  0.88600023  0.09348324     0.05700
H2740       H  0.73860300  0.91857665  0.10830245     0.07600
H2741       H  0.70016665  0.92078770  0.11270159     0.11100
H2742       H  0.69531788  0.85735516  0.09796951     0.11400
H2743       H  0.73414516  0.85520040  0.09223145     0.07700
C2744       C  0.77514544  0.87052681  0.10829912    -0.11500
C2745       C  0.79742437  0.87089817  0.10535170    -0.10700
C2746       C  0.80803424  0.88681067  0.08777907    -0.01700
C2747       C  0.79593858  0.90184895  0.07178271    -0.11800
C2748       C  0.77378001  0.90135217  0.07428217    -0.10200
H2749       H  0.76744257  0.85852023  0.12338726     0.07700
H2750       H  0.80634852  0.85915103  0.11813884     0.11400
H2751       H  0.80362596  0.91419376  0.05766931     0.11100
H2752       H  0.76501958  0.91319183  0.06147052     0.07700
loop_ 
_geom_bond_atom_site_label_1 
_geom_bond_atom_site_label_2 
_geom_bond_distance 
_geom_bond_site_symmetry_2 
_ccdc_geom_bond_type 
O1           Ni7   1.929       .  S
O1           C22   1.271       .  A
O2          Ni25   1.928       .  S
O2           C11   1.271       .  A
O3           Ni7   1.906       .  S
O3          Ni25   1.920       .  S
O3          Ni19   1.921       .  S
O3           H26   0.966       .  S
C4           O21   1.281       .  A
C4           O13   1.277       .  A
C4         C2697   1.483       .  S
O5          Ni24   1.929       .  S
O5           C11   1.270       .  A
O6          Ni24   1.899       .  S
O6            C8   1.268       .  A
Ni7          O10   1.925       .  S
Ni7          O12   1.902       .  S
C8           O18   1.274       .  A
C8         C2657   1.484       .  S
O9          Ni25   1.927       .  S
O9           C15   1.278       .  A
O10          C15   1.277       .  A
C11        C2646   1.480       .  S
O12          C14   1.268       .  A
O13         Ni24   1.916       .  S
C14          O20   1.273       .  A
C14        C2737   1.483       .  S
C15        C2686   1.492   1_554  S
H16          O17   0.967       .  S
O17         Ni25   1.909       .  S
O17         Ni19   1.912       .  S
O17         Ni24   1.898       .  S
O18         Ni19   1.940       .  S
Ni19         O23   1.931       .  S
Ni19         O21   1.929       .  S
O20         Ni25   1.931       .  S
C22          O23   1.273       .  A
C22        C2726   1.493       .  S
O27         Ni33   1.923       .  S
O27          C48   1.273       .  A
O28         Ni51   1.924       .  S
O28          C37   1.270       .  A
O29         Ni33   1.905       .  S
O29         Ni51   1.913       .  S
O29         Ni45   1.933       .  S
O29          H52   0.966       .  S
C30          O47   1.286       .  A
C30          O39   1.276       .  A
C30        C2677   1.488       .  S
O31         Ni50   1.920       .  S
O31          C37   1.268       .  A
O32         Ni50   1.905       .  S
O32          C34   1.268       .  A
Ni33         O36   1.934       .  S
Ni33         O38   1.897       .  S
C34          O44   1.269       .  A
C34        C2586   1.475       .  S
O35         Ni51   1.905       .  S
O35          C41   1.269       .  A
O36          C41   1.273       .  A
C37        C2557   1.483       .  S
O38          C40   1.271       .  A
O39         Ni50   1.912       .  S
C40          O46   1.281       .  A
C40        C2626   1.486       .  S
C41        C2706   1.474       .  S
H42          O43   0.966       .  S
O43         Ni51   1.904       .  S
O43         Ni45   1.898       .  S
O43         Ni50   1.898       .  S
O44         Ni45   1.923       .  S
Ni45         O49   1.914       .  S
Ni45         O47   1.951       .  S
O46         Ni51   1.959       .  S
C48          O49   1.273       .  A
C48        C2597   1.485       .  S
O53         Ni59   1.923       .  S
O53          C74   1.272       .  A
O54         Ni77   1.932       .  S
O54          C63   1.271       .  A
O55         Ni59   1.911       .  S
O55         Ni77   1.923       .  S
O55         Ni71   1.935       .  S
O55          H78   0.966       .  S
C56          O73   1.281       .  A
C56          O65   1.277       .  A
C56        C2506   1.486       .  S
O57         Ni76   1.923       .  S
O57          C63   1.269       .  A
O58         Ni76   1.904       .  S
O58          C60   1.268       .  A
Ni59         O62   1.928       .  S
Ni59         O64   1.900       .  S
C60          O70   1.268       .  A
C60        C2486   1.479       .  S
O61         Ni77   1.906       .  S
O61          C67   1.269       .  A
O62          C67   1.272       .  A
C63        C2466   1.484       .  S
O64          C66   1.272       .  A
O65         Ni76   1.918   1_556  S
C66          O72   1.280       .  A
C66        C2746   1.480       .  S
C67        C2517   1.481       .  S
H68          O69   0.966       .  S
O69         Ni77   1.904       .  S
O69         Ni71   1.900       .  S
O69         Ni76   1.904       .  S
O70         Ni71   1.922       .  S
Ni71         O75   1.909       .  S
Ni71         O73   1.932   1_554  S
O72         Ni77   1.950       .  S
C74          O75   1.269       .  A
C74        C2546   1.483       .  S
O79         Ni85   1.942       .  S
O79         C100   1.274       .  A
O80        Ni103   1.950       .  S
O80          C89   1.276       .  A
O81         Ni85   1.906       .  S
O81        Ni103   1.930       .  S
O81         Ni97   1.912       .  S
O81         H104   0.966       .  S
C82          O99   1.278       .  A
C82          O91   1.277       .  A
C82        C2526   1.481       .  S
O83        Ni102   1.929       .  S
O83          C89   1.268       .  A
O84        Ni102   1.902       .  S
O84          C86   1.269       .  A
Ni85         O88   1.924       .  S
Ni85         O90   1.903       .  S
C86          O96   1.273       .  A
C86        C2417   1.487       .  S
O87        Ni103   1.922       .  S
O87          C93   1.279       .  A
O88          C93   1.278       .  A
C89        C2397   1.497       .  S
O90          C92   1.269       .  A
O91        Ni102   1.917       .  S
C92          O98   1.275       .  A
C92        C2617   1.484       .  S
C93        C2497   1.484       .  S
H94          O95   0.967       .  S
O95        Ni103   1.912       .  S
O95         Ni97   1.922       .  S
O95        Ni102   1.910       .  S
O96         Ni97   1.933       .  S
Ni97        O101   1.938       .  S
Ni97         O99   1.921       .  S
O98        Ni103   1.941       .  S
C100        O101   1.274       .  A
C100       C2437   1.503       .  S
O105       Ni111   1.938       .  S
O105        C126   1.274       .  A
O106       Ni129   1.957       .  S
O106        C115   1.279       .  A
O107       Ni111   1.901       .  S
O107       Ni129   1.934       .  S
O107       Ni123   1.917       .  S
O107        H130   0.966       .  S
C108        O125   1.282       .  A
C108        O117   1.277       .  A
C108       C2337   1.487       .  S
O109       Ni128   1.921       .  S
O109        C115   1.269       .  A
O110       Ni128   1.904       .  S
O110        C112   1.268       .  A
Ni111       O114   1.921       .  S
Ni111       O116   1.895       .  S
C112        O122   1.272       .  A
C112       C2297   1.481       .  S
O113       Ni129   1.921       .  S
O113        C119   1.278       .  A
O114        C119   1.275       .  A
C115       C2317   1.505       .  S
O116        C118   1.270       .  A
O117       Ni128   1.915       .  S
C118        O124   1.276       .  A
C118       C2377   1.482       .  S
C119       C2357   1.483       .  S
H120        O121   0.966       .  S
O121       Ni129   1.914       .  S
O121       Ni123   1.911       .  S
O121       Ni128   1.894       .  S
O122       Ni123   1.925       .  S
Ni123       O127   1.936       .  S
Ni123       O125   1.937       .  S
O124       Ni129   1.945       .  S
C126        O127   1.274       .  A
C126       C2446   1.502       .  S
O131       Ni137   1.923       .  S
O131        C152   1.270       .  A
O132       Ni155   1.918       .  S
O132        C141   1.269       .  A
O133       Ni137   1.902       .  S
O133       Ni155   1.907       .  S
O133       Ni149   1.916       .  S
O133        H156   0.966       .  S
C134        O151   1.281   1_554  A
C134        O143   1.278   1_554  A
C134       C2366   1.483       .  S
O135       Ni154   1.924       .  S
O135        C141   1.270       .  A
O136       Ni154   1.905       .  S
O136        C138   1.268       .  A
Ni137       O140   1.922       .  S
Ni137       O142   1.899       .  S
C138        O148   1.270       .  A
C138       C2237   1.480       .  S
O139       Ni155   1.924       .  S
O139        C145   1.280       .  A
O140        C145   1.277       .  A
C141       C2257   1.471       .  S
O142        C144   1.268       .  A
O143       Ni154   1.915       .  S
C144        O150   1.271       .  A
C144       C2286   1.478       .  S
C145       C2346   1.486       .  S
H146        O147   0.966       .  S
O147       Ni155   1.915       .  S
O147       Ni149   1.900       .  S
O147       Ni154   1.897       .  S
O148       Ni149   1.922       .  S
Ni149       O153   1.911       .  S
Ni149       O151   1.932       .  S
O150       Ni155   1.926       .  S
C152        O153   1.270       .  A
C152       C2537   1.480       .  S
O157       Ni163   1.928       .  S
O157        C178   1.272       .  A
O158       Ni181   1.922       .  S
O158        C167   1.269       .  A
O159       Ni163   1.893       .  S
O159       Ni181   1.906       .  S
O159       Ni175   1.909       .  S
O159        H182   0.966       .  S
C160        O177   1.280       .  A
C160        O169   1.278       .  A
C160       C2217   1.482       .  S
O161       Ni180   1.931       .  S
O161        C167   1.271       .  A
O162       Ni180   1.906       .  S
O162        C164   1.269       .  A
Ni163       O166   1.915       .  S
Ni163       O168   1.902       .  S
C164        O174   1.270       .  A
C164       C2157   1.482       .  S
O165       Ni181   1.925       .  S
O165        C171   1.279       .  A
O166        C171   1.278       .  A
C167       C2177   1.477       .  S
O168        C170   1.269       .  A
O169       Ni180   1.922       .  S
C170        O176   1.272       .  A
C170       C2386   1.479       .  S
C171       C2197   1.479       .  S
H172        O173   0.966       .  S
O173       Ni181   1.909       .  S
O173       Ni175   1.908       .  S
O173       Ni180   1.900       .  S
O174       Ni175   1.926       .  S
Ni175       O179   1.922       .  S
Ni175       O177   1.923       .  S
O176       Ni181   1.931       .  S
C178        O179   1.271       .  A
C178       C2717   1.486       .  S
O183       Ni189   1.928       .  S
O183        C204   1.272       .  A
O184       Ni207   1.928       .  S
O184        C193   1.270       .  A
O185       Ni189   1.904       .  S
O185       Ni207   1.920       .  S
O185       Ni201   1.921       .  S
O185        H208   0.966       .  S
C186        O203   1.283       .  A
C186        O195   1.276       .  A
C186       C2206   1.478       .  S
O187       Ni206   1.919       .  S
O187        C193   1.267       .  A
O188       Ni206   1.906       .  S
O188        C190   1.268       .  A
Ni189       O192   1.926       .  S
Ni189       O194   1.896       .  S
C190        O200   1.270       .  A
C190       C2126   1.482       .  S
O191       Ni207   1.917       .  S
O191        C197   1.275       .  A
O192        C197   1.276       .  A
C193       C2146   1.477       .  S
O194        C196   1.268       .  A
O195       Ni206   1.913       .  S
C196        O202   1.274       .  A
C196       C2277   1.476       .  S
C197       C2226   1.485       .  S
H198        O199   0.966       .  S
O199       Ni207   1.908       .  S
O199       Ni201   1.901       .  S
O199       Ni206   1.901       .  S
O200       Ni201   1.926       .  S
Ni201       O205   1.918       .  S
Ni201       O203   1.932       .  S
O202       Ni207   1.933       .  S
C204        O205   1.271       .  A
C204       C2606   1.487       .  S
O209       Ni215   1.912       .  S
O209        C230   1.265       .  A
O210       Ni233   1.931       .  S
O210        C219   1.272       .  A
O211       Ni215   1.897       .  S
O211       Ni233   1.913       .  S
O211       Ni227   1.913       .  S
O211        H234   0.966       .  S
C212        O229   1.282       .  A
C212        O221   1.276       .  A
C212       C2066   1.483       .  S
O213       Ni232   1.930       .  S
O213        C219   1.272       .  A
O214       Ni232   1.899       .  S
O214        C216   1.271       .  A
Ni215       O218   1.912   1_554  S
Ni215       O220   1.895       .  S
C216        O226   1.277       .  A
C216       C2097   1.485       .  S
O217       Ni233   1.921   1_556  S
O217        C223   1.280       .  A
O218        C223   1.277       .  A
C219       C2077   1.496       .  S
O220        C222   1.265       .  A
O221       Ni232   1.912       .  S
C222        O228   1.269       .  A
C222       C2477   1.478       .  S
C223       C2046   1.477       .  S
H224        O225   0.966       .  S
O225       Ni233   1.916       .  S
O225       Ni227   1.924       .  S
O225       Ni232   1.893       .  S
O226       Ni227   1.941       .  S
Ni227       O231   1.960       .  S
Ni227       O229   1.932       .  S
O228       Ni233   1.927       .  S
C230        O231   1.279       .  A
C230       C2017   1.502       .  S
O235       Ni241   1.930       .  S
O235        C256   1.272       .  A
O236       Ni259   1.936       .  S
O236        C245   1.275       .  A
O237       Ni241   1.906       .  S
O237       Ni259   1.924       .  S
O237       Ni253   1.917       .  S
O237        H260   0.966       .  S
C238        O255   1.282       .  A
C238        O247   1.275       .  A
C238       C2037   1.479       .  S
O239       Ni258   1.929       .  S
O239        C245   1.271       .  A
O240       Ni258   1.904       .  S
O240        C242   1.271       .  A
Ni241       O244   1.916       .  S
Ni241       O246   1.902       .  S
C242        O252   1.277       .  A
C242       C2006   1.488       .  S
O243       Ni259   1.928       .  S
O243        C249   1.279       .  A
O244        C249   1.275       .  A
C245       C1977   1.500       .  S
O246        C248   1.268       .  A
O247       Ni258   1.907       .  S
C248        O254   1.273       .  A
C248       C2426   1.477       .  S
C249       C2057   1.484       .  S
H250        O251   0.966       .  S
O251       Ni259   1.910       .  S
O251       Ni253   1.917       .  S
O251       Ni258   1.895       .  S
O252       Ni253   1.941       .  S
Ni253       O257   1.948       .  S
Ni253       O255   1.933       .  S
O254       Ni259   1.938       .  S
C256        O257   1.277       .  A
C256       C1957   1.501       .  S
O261       Ni267   1.921       .  S
O261        C282   1.267       .  A
O262       Ni285   1.930       .  S
O262        C271   1.273       .  A
O263       Ni267   1.903       .  S
O263       Ni285   1.905       .  S
O263       Ni279   1.914       .  S
O263        H286   0.966       .  S
C264        O281   1.281       .  A
C264        O273   1.276       .  A
C264       C1897   1.484       .  S
O265       Ni284   1.927       .  S
O265        C271   1.271       .  A
O266       Ni284   1.904       .  S
O266        C268   1.270       .  A
Ni267       O270   1.921       .  S
Ni267       O272   1.901       .  S
C268        O278   1.272       .  A
C268       C2106   1.483       .  S
O269       Ni285   1.922       .  S
O269        C275   1.281       .  A
O270        C275   1.278       .  A
C271       C1946   1.493       .  S
O272        C274   1.268       .  A
O273       Ni284   1.915       .  S
C274        O280   1.272       .  A
C274       C2666   1.484       .  S
C275       C1917   1.481       .  S
H276        O277   0.966       .  S
O277       Ni285   1.919       .  S
O277       Ni279   1.916       .  S
O277       Ni284   1.899       .  S
O278       Ni279   1.925       .  S
Ni279       O283   1.931       .  S
Ni279       O281   1.929       .  S
O280       Ni285   1.933       .  S
C282        O283   1.271       .  A
C282       C1877   1.479       .  S
O287       Ni293   1.924       .  S
O287        C308   1.268       .  A
O288       Ni311   1.919       .  S
O288        C297   1.271       .  A
O289       Ni293   1.900       .  S
O289       Ni311   1.911       .  S
O289       Ni305   1.913       .  S
O289        H312   0.966       .  S
C290        O307   1.280       .  A
C290        O299   1.277       .  A
C290       C1926   1.481       .  S
O291       Ni310   1.932       .  S
O291        C297   1.273       .  A
O292       Ni310   1.908       .  S
O292        C294   1.271       .  A
Ni293       O296   1.916       .  S
Ni293       O298   1.894       .  S
C294        O304   1.275       .  A
C294       C1997   1.489       .  S
O295       Ni311   1.928       .  S
O295        C301   1.280       .  A
O296        C301   1.277       .  A
C297       C1857   1.489       .  S
O298        C300   1.266       .  A
O299       Ni310   1.916       .  S
C300        O306   1.271       .  A
C300       C2577   1.481       .  S
C301       C1906   1.482       .  S
H302        O303   0.966       .  S
O303       Ni311   1.914       .  S
O303       Ni305   1.916       .  S
O303       Ni310   1.898       .  S
O304       Ni305   1.935       .  S
Ni305       O309   1.938       .  S
Ni305       O307   1.928       .  S
O306       Ni311   1.932       .  S
C308        O309   1.274       .  A
C308       C1837   1.488       .  S
O313       Ni319   1.925       .  S
O313        C334   1.270       .  A
O314       Ni337   1.923       .  S
O314        C323   1.272       .  A
O315       Ni319   1.900       .  S
O315       Ni337   1.914       .  S
O315       Ni331   1.915       .  S
O315        H338   0.967       .  S
C316        O333   1.280       .  A
C316        O325   1.274       .  A
C316       C1786   1.475       .  S
O317       Ni336   1.927       .  S
O317        C323   1.272       .  A
O318       Ni336   1.910       .  S
O318        C320   1.271       .  A
Ni319       O322   1.923       .  S
Ni319       O324   1.894       .  S
C320        O330   1.277       .  A
C320       C1817   1.490       .  S
O321       Ni337   1.924       .  S
O321        C327   1.278       .  A
O322        C327   1.277       .  A
C323       C1937   1.489       .  S
O324        C326   1.267       .  A
O325       Ni336   1.910       .  S
C326        O332   1.274       .  A
C326       C2166   1.483       .  S
C327       C1806   1.483       .  S
H328        O329   0.966       .  S
O329       Ni337   1.913       .  S
O329       Ni331   1.916       .  S
O329       Ni336   1.900       .  S
O330       Ni331   1.939       .  S
Ni331       O335   1.944       .  S
Ni331       O333   1.928       .  S
O332       Ni337   1.941       .  S
C334        O335   1.277       .  A
C334       C1766   1.496       .  S
O339       Ni345   1.917       .  S
O339        C360   1.268       .  A
O340       Ni363   1.919       .  S
O340        C349   1.270       .  A
O341       Ni345   1.908       .  S
O341       Ni363   1.920       .  S
O341       Ni357   1.918       .  S
O341        H364   0.966       .  S
C342        O359   1.278       .  A
C342        O351   1.276       .  A
C342       C1797   1.486       .  S
O343       Ni362   1.937       .  S
O343        C349   1.273       .  A
O344       Ni362   1.904       .  S
O344        C346   1.270       .  A
Ni345       O348   1.915       .  S
Ni345       O350   1.892       .  S
C346        O356   1.275       .  A
C346       C1746   1.487       .  S
O347       Ni363   1.912       .  S
O347        C353   1.273       .  A
O348        C353   1.274       .  A
C349       C1866   1.493       .  S
O350        C352   1.266       .  A
O351       Ni362   1.920       .  S
C352        O358   1.274       .  A
C352       C2117   1.481       .  S
C353       C1777   1.479       .  S
H354        O355   0.966       .  S
O355       Ni363   1.911       .  S
O355       Ni357   1.923       .  S
O355       Ni362   1.907       .  S
O356       Ni357   1.936       .  S
Ni357       O361   1.940       .  S
Ni357       O359   1.924       .  S
O358       Ni363   1.937       .  S
C360        O361   1.274       .  A
C360       C1717   1.491       .  S
O365       Ni371   1.919       .  S
O365        C386   1.266       .  A
O366       Ni389   1.935       .  S
O366        C375   1.274       .  A
O367       Ni371   1.904       .  S
O367       Ni389   1.916       .  S
O367       Ni383   1.915       .  S
O367        H390   0.966       .  S
C368        O385   1.280       .  A
C368        O377   1.275       .  A
C368       C1706   1.486       .  S
O369       Ni388   1.928       .  S
O369        C375   1.271       .  A
O370       Ni388   1.903       .  S
O370        C372   1.270       .  A
Ni371       O374   1.916       .  S
Ni371       O376   1.885       .  S
C372        O382   1.276       .  A
C372       C1826   1.487       .  S
O373       Ni389   1.920       .  S
O373        C379   1.277       .  A
O374        C379   1.275       .  A
C375       C1986   1.496       .  S
O376        C378   1.264       .  A
O377       Ni388   1.912       .  S
C378        O384   1.273       .  A
C378       C2306   1.478       .  S
C379       C1677   1.470       .  S
H380        O381   0.966       .  S
O381       Ni389   1.918       .  S
O381       Ni383   1.924       .  S
O381       Ni388   1.901       .  S
O382       Ni383   1.935       .  S
Ni383       O387   1.945       .  S
Ni383       O385   1.933       .  S
O384       Ni389   1.937       .  S
C386        O387   1.275       .  A
C386       C1657   1.488       .  S
O391       Ni397   1.914       .  S
O391        C412   1.266       .  A
O392       Ni415   1.938       .  S
O392        C401   1.275       .  A
O393       Ni397   1.895       .  S
O393       Ni415   1.913       .  S
O393       Ni409   1.916       .  S
O393        H416   0.966       .  S
C394        O411   1.282       .  A
C394        O403   1.276       .  A
C394       C1686   1.479       .  S
O395       Ni414   1.923       .  S
O395        C401   1.270       .  A
O396       Ni414   1.900       .  S
O396        C398   1.269       .  A
Ni397       O400   1.911   1_556  S
Ni397       O402   1.895       .  S
C398        O408   1.276       .  A
C398       C1737   1.483       .  S
O399       Ni415   1.932   1_554  S
O399        C405   1.282       .  A
O400        C405   1.277       .  A
C401       C2086   1.497       .  S
O402        C404   1.266       .  A
O403       Ni414   1.908       .  S
C404        O410   1.272       .  A
C404       C2246   1.482       .  S
C405       C1697   1.480       .  S
H406        O407   0.966       .  S
O407       Ni415   1.916       .  S
O407       Ni409   1.921       .  S
O407       Ni414   1.895       .  S
O408       Ni409   1.941       .  S
Ni409       O413   1.961       .  S
Ni409       O411   1.928       .  S
O410       Ni415   1.936       .  S
C412        O413   1.279       .  A
C412       C1646   1.505       .  S
O417       Ni423   1.940       .  S
O417        C438   1.277       .  A
O418       Ni441   1.903       .  S
O418        C427   1.267       .  A
O419       Ni423   1.902       .  S
O419       Ni441   1.902       .  S
O419       Ni435   1.912       .  S
O419        H442   0.966       .  S
C420        O437   1.277       .  A
C420        O429   1.281       .  A
C420       C1557   1.486       .  S
O421       Ni440   1.929       .  S
O421        C427   1.274       .  A
O422       Ni440   1.915       .  S
O422        C424   1.270       .  A
Ni423       O426   1.931       .  S
Ni423       O428   1.920       .  S
C424        O434   1.278       .  A
C424       C1617   1.505       .  S
O425       Ni441   1.926       .  S
O425        C431   1.279       .  A
O426        C431   1.280       .  A
C427       C1597   1.466       .  S
O428        C430   1.272       .  A
O429       Ni440   1.932       .  S
C430        O436   1.278       .  A
C430       C2326   1.507       .  S
C431       C1577   1.491       .  S
H432        O433   0.966       .  S
O433       Ni441   1.910       .  S
O433       Ni435   1.894       .  S
O433       Ni440   1.894       .  S
O434       Ni435   1.959       .  S
Ni435       O439   1.890       .  S
Ni435       O437   1.919       .  S
O436       Ni441   1.953       .  S
C438        O439   1.265       .  A
C438       C1537   1.478       .  S
O443       Ni449   1.919       .  S
O443        C464   1.270       .  A
O444       Ni467   1.923       .  S
O444        C453   1.273       .  A
O445       Ni449   1.893       .  S
O445       Ni467   1.904       .  S
O445       Ni461   1.916       .  S
O445        H468   0.966       .  S
C446        O463   1.281       .  A
C446        O455   1.276       .  A
C446       C1566   1.483       .  S
O447       Ni466   1.925       .  S
O447        C453   1.273       .  A
O448       Ni466   1.916       .  S
O448        C450   1.272       .  A
Ni449       O452   1.919       .  S
Ni449       O454   1.903       .  S
C450        O460   1.275       .  A
C450       C1497   1.486       .  S
O451       Ni467   1.937       .  S
O451        C457   1.283   1_556  A
O452        C457   1.279   1_556  A
C453       C1526   1.486       .  S
O454        C456   1.268       .  A
O455       Ni466   1.918       .  S
C456        O462   1.272       .  A
C456       C1477   1.482       .  S
C457       C1586   1.485       .  S
H458        O459   0.966       .  S
O459       Ni467   1.925       .  S
O459       Ni461   1.907       .  S
O459       Ni466   1.896       .  S
O460       Ni461   1.937       .  S
Ni461       O465   1.925       .  S
Ni461       O463   1.936       .  S
O462       Ni467   1.932       .  S
C464        O465   1.272       .  A
C464       C2266   1.483       .  S
O469       Ni475   1.919   1_554  S
O469        C490   1.270       .  A
O470       Ni493   1.926       .  S
O470        C479   1.272       .  A
O471       Ni475   1.897       .  S
O471       Ni493   1.907       .  S
O471       Ni487   1.922   1_556  S
O471        H494   0.966       .  S
C472        O489   1.281       .  A
C472        O481   1.277       .  A
C472       C1437   1.487       .  S
O473       Ni492   1.925       .  S
O473        C479   1.271   1_554  A
O474       Ni492   1.898       .  S
O474        C476   1.269       .  A
Ni475       O478   1.916       .  S
Ni475       O480   1.910       .  S
C476        O486   1.275       .  A
C476       C1457   1.487       .  S
O477       Ni493   1.932       .  S
O477        C483   1.281       .  A
O478        C483   1.276       .  A
C479       C1517   1.490       .  S
O480        C482   1.269       .  A
O481       Ni492   1.914       .  S
C482        O488   1.271       .  A
C482       C1397   1.484       .  S
C483       C1417   1.478       .  S
H484        O485   0.966       .  S
O485       Ni493   1.916   1_554  S
O485       Ni487   1.912       .  S
O485       Ni492   1.891       .  S
O486       Ni487   1.940       .  S
Ni487       O491   1.931       .  S
Ni487       O489   1.934       .  S
O488       Ni493   1.923       .  S
C490        O491   1.274       .  A
C490       C2457   1.488       .  S
O495       Ni501   1.921       .  S
O495        C516   1.271       .  A
O496       Ni519   1.944       .  S
O496        C505   1.275       .  A
O497       Ni501   1.913       .  S
O497       Ni519   1.928       .  S
O497       Ni513   1.930       .  S
O497        H520   0.992       .  S
C498        O515   1.276       .  A
C498        O507   1.275       .  A
C498       C1426   1.485       .  S
O499       Ni518   1.936       .  S
O499        C505   1.272       .  A
O500       Ni518   1.901       .  S
O500        C502   1.270       .  A
Ni501       O504   1.926       .  S
Ni501       O506   1.903       .  S
C502        O512   1.276       .  A
C502       C1377   1.487       .  S
O503       Ni519   1.917       .  S
O503        C509   1.271       .  A
O504        C509   1.269       .  A
C505       C1626   1.504       .  S
O506        C508   1.272       .  A
O507       Ni518   1.917       .  S
C508        O514   1.279       .  A
C508       C1357   1.470       .  S
C509       C1446   1.483       .  S
H510        O511   0.972       .  S
O511       Ni519   1.906       .  S
O511       Ni513   1.926       .  S
O511       Ni518   1.905       .  S
O512       Ni513   1.938       .  S
Ni513       O517   1.943       .  S
Ni513       O515   1.922       .  S
O514       Ni519   1.952       .  S
C516        O517   1.277       .  A
C516       C2406   1.500       .  S
O521       Ni527   1.921       .  S
O521        C542   1.271       .  A
O522       Ni545   1.920       .  S
O522        C531   1.270       .  A
O523       Ni527   1.909       .  S
O523       Ni545   1.922       .  S
O523       Ni539   1.929       .  S
O523        H546   0.966       .  S
C524        O541   1.281       .  A
C524        O533   1.274       .  A
C524       C1297   1.488   1_554  S
O525       Ni544   1.925       .  S
O525        C531   1.270       .  A
O526       Ni544   1.912       .  S
O526        C528   1.271       .  A
Ni527       O530   1.927       .  S
Ni527       O532   1.898       .  S
C528        O538   1.271       .  A
C528       C1466   1.478       .  S
O529       Ni545   1.914       .  S
O529        C535   1.271       .  A
O530        C535   1.273       .  A
C531       C1346   1.485       .  S
O532        C534   1.269       .  A
O533       Ni544   1.911       .  S
C534        O540   1.278       .  A
C534       C1277   1.484       .  S
C535       C1317   1.484       .  S
H536        O537   0.966       .  S
O537       Ni545   1.914       .  S
O537       Ni539   1.913       .  S
O537       Ni544   1.911       .  S
O538       Ni539   1.925       .  S
Ni539       O543   1.926       .  S
Ni539       O541   1.936       .  S
O540       Ni545   1.953       .  S
C542        O543   1.272       .  A
C542       C2637   1.487       .  S
O547       Ni553   1.926       .  S
O547        C568   1.272       .  A
O548       Ni571   1.911       .  S
O548        C557   1.268       .  A
O549       Ni553   1.906       .  S
O549       Ni571   1.914       .  S
O549       Ni565   1.918       .  S
O549        H572   0.966       .  S
C550        O567   1.280       .  A
C550        O559   1.275       .  A
C550       C1326   1.485       .  S
O551       Ni570   1.923       .  S
O551        C557   1.270       .  A
O552       Ni570   1.906       .  S
O552        C554   1.270       .  A
Ni553       O556   1.936       .  S
Ni553       O558   1.902       .  S
C554        O564   1.275       .  A
C554       C1386   1.487       .  S
O555       Ni571   1.908       .  S
O555        C561   1.272       .  A
O556        C561   1.277       .  A
C557       C1257   1.478       .  S
O558        C560   1.267       .  A
O559       Ni570   1.913       .  S
C560        O566   1.274       .  A
C560       C1237   1.477       .  S
C561       C1306   1.484       .  S
H562        O563   0.966       .  S
O563       Ni571   1.911       .  S
O563       Ni565   1.908       .  S
O563       Ni570   1.902       .  S
O564       Ni565   1.937       .  S
Ni565       O569   1.920       .  S
Ni565       O567   1.930       .  S
O566       Ni571   1.947       .  S
C568        O569   1.271       .  A
C568       C2566   1.473       .  S
O573       Ni579   1.916       .  S
O573        C594   1.271       .  A
O574       Ni597   1.919       .  S
O574        C583   1.269       .  A
O575       Ni579   1.910       .  S
O575       Ni597   1.916       .  S
O575       Ni591   1.929       .  S
O575        H598   0.966       .  S
C576        O593   1.279       .  A
C576        O585   1.274       .  A
C576       C1206   1.482       .  S
O577       Ni596   1.931       .  S
O577        C583   1.272       .  A
O578       Ni596   1.908       .  S
O578        C580   1.271       .  A
Ni579       O582   1.935       .  S
Ni579       O584   1.886       .  S
C580        O590   1.268       .  A
C580       C1606   1.469       .  S
O581       Ni597   1.905       .  S
O581        C587   1.269       .  A
O582        C587   1.272       .  A
C583       C1337   1.490       .  S
O584        C586   1.266       .  A
O585       Ni596   1.915       .  S
C586        O592   1.277       .  A
C586       C1177   1.471       .  S
C587       C1226   1.476       .  S
H588        O589   0.966       .  S
O589       Ni597   1.907       .  S
O589       Ni591   1.914       .  S
O589       Ni596   1.910       .  S
O590       Ni591   1.912       .  S
Ni591       O595   1.925       .  S
Ni591       O593   1.931       .  S
O592       Ni597   1.952       .  S
C594        O595   1.272       .  A
C594       C2186   1.483       .  S
O599       Ni605   1.921       .  S
O599        C620   1.269       .  A
O600       Ni623   1.916       .  S
O600        C609   1.271       .  A
O601       Ni605   1.899       .  S
O601       Ni623   1.907       .  S
O601       Ni617   1.916       .  S
O601        H624   0.966       .  S
C602        O619   1.279       .  A
C602        O611   1.277       .  A
C602       C1217   1.483       .  S
O603       Ni622   1.923       .  S
O603        C609   1.271       .  A
O604       Ni622   1.903       .  S
O604        C606   1.269       .  A
Ni605       O608   1.912       .  S
Ni605       O610   1.905       .  S
C606        O616   1.278       .  A
C606       C1506   1.495       .  S
O607       Ni623   1.937       .  S
O607        C613   1.282       .  A
O608        C613   1.277       .  A
C609       C1266   1.482       .  S
O610        C612   1.268       .  A
O611       Ni622   1.916       .  S
C612        O618   1.271       .  A
C612       C1166   1.486       .  S
C613       C1197   1.488       .  S
H614        O615   0.966       .  S
O615       Ni623   1.914       .  S
O615       Ni617   1.911       .  S
O615       Ni622   1.896       .  S
O616       Ni617   1.951       .  S
Ni617       O621   1.932       .  S
Ni617       O619   1.924       .  S
O618       Ni623   1.933       .  S
C620        O621   1.273       .  A
C620       C2137   1.488       .  S
O625       Ni631   1.931       .  S
O625        C646   1.274       .  A
O626       Ni649   1.907       .  S
O626        C635   1.269       .  A
O627       Ni631   1.901       .  S
O627       Ni649   1.903       .  S
O627       Ni643   1.911       .  S
O627        H650   0.966       .  S
C628        O645   1.278       .  A
C628        O637   1.277       .  A
C628       C1097   1.488       .  S
O629       Ni648   1.930       .  S
O629        C635   1.273       .  A
O630       Ni648   1.916       .  S
O630        C632   1.271       .  A
Ni631       O634   1.930   1_554  S
Ni631       O636   1.907       .  S
C632        O642   1.275       .  A
C632       C2026   1.501       .  S
O633       Ni649   1.918   1_556  S
O633        C639   1.277       .  A
O634        C639   1.279       .  A
C635       C1406   1.479       .  S
O636        C638   1.269       .  A
O637       Ni648   1.922       .  S
C638        O644   1.279       .  A
C638       C1137   1.503       .  S
C639       C1077   1.485       .  S
H640        O641   0.966       .  S
O641       Ni649   1.914       .  S
O641       Ni643   1.907       .  S
O641       Ni648   1.908       .  S
O642       Ni643   1.945       .  S
Ni643       O647   1.903       .  S
Ni643       O645   1.929       .  S
O644       Ni649   1.959       .  S
C646        O647   1.267       .  A
C646       C1126   1.476       .  S
O651       Ni657   1.934       .  S
O651        C672   1.274       .  A
O652       Ni675   1.917       .  S
O652        C661   1.271       .  A
O653       Ni657   1.899       .  S
O653       Ni675   1.907       .  S
O653       Ni669   1.912       .  S
O653        H676   0.966       .  S
C654        O671   1.281       .  A
C654        O663   1.279       .  A
C654       C1086   1.488       .  S
O655       Ni674   1.922       .  S
O655        C661   1.272       .  A
O656       Ni674   1.917       .  S
O656        C658   1.270       .  A
Ni657       O660   1.928       .  S
Ni657       O662   1.903       .  S
C658        O668   1.276       .  A
C658       C1966   1.503       .  S
O659       Ni675   1.923       .  S
O659        C665   1.279       .  A
O660        C665   1.279       .  A
C661       C1366   1.478       .  S
O662        C664   1.269       .  A
O663       Ni674   1.920       .  S
C664        O670   1.278       .  A
C664       C1066   1.498       .  S
C665       C1106   1.486       .  S
H666        O667   0.966       .  S
O667       Ni675   1.911       .  S
O667       Ni669   1.897       .  S
O667       Ni674   1.897       .  S
O668       Ni669   1.948       .  S
Ni669       O673   1.904       .  S
Ni669       O671   1.931       .  S
O670       Ni675   1.954       .  S
C672        O673   1.268       .  A
C672       C1037   1.478       .  S
O677       Ni683   1.928       .  S
O677        C698   1.271       .  A
O678       Ni701   1.942       .  S
O678        C687   1.274       .  A
O679       Ni683   1.901       .  S
O679       Ni701   1.923       .  S
O679       Ni695   1.917       .  S
O679        H702   0.966       .  S
C680        O697   1.280       .  A
C680        O689   1.275       .  A
C680        C977   1.481       .  S
O681       Ni700   1.921       .  S
O681        C687   1.270       .  A
O682       Ni700   1.902       .  S
O682        C684   1.269       .  A
Ni683       O686   1.918       .  S
Ni683       O688   1.896       .  S
C684        O694   1.274       .  A
C684       C1546   1.484       .  S
O685       Ni701   1.929       .  S
O685        C691   1.281       .  A
O686        C691   1.277       .  A
C687       C1666   1.498       .  S
O688        C690   1.267       .  A
O689       Ni700   1.912       .  S
C690        O696   1.272       .  A
C690       C1017   1.476       .  S
C691        C997   1.487       .  S
H692        O693   0.966       .  S
O693       Ni701   1.919       .  S
O693       Ni695   1.916       .  S
O693       Ni700   1.898       .  S
O694       Ni695   1.934       .  S
Ni695       O699   1.937       .  S
Ni695       O697   1.931       .  S
O696       Ni701   1.929       .  S
C698        O699   1.275       .  A
C698       C1057   1.498       .  S
O703       Ni709   1.928       .  S
O703        C724   1.271       .  A
O704       Ni727   1.943       .  S
O704        C713   1.276       .  A
O705       Ni709   1.895       .  S
O705       Ni727   1.917       .  S
O705       Ni721   1.913       .  S
O705        H728   0.966       .  S
C706        O723   1.282       .  A
C706        O715   1.278       .  A
C706       C1006   1.485       .  S
O707       Ni726   1.937       .  S
O707        C713   1.272       .  A
O708       Ni726   1.904       .  S
O708        C710   1.269       .  A
Ni709       O712   1.917       .  S
Ni709       O714   1.902       .  S
C710        O720   1.275       .  A
C710       C1486   1.485       .  S
O711       Ni727   1.925       .  S
O711        C717   1.281       .  A
O712        C717   1.278       .  A
C713       C1637   1.496       .  S
O714        C716   1.269       .  A
O715       Ni726   1.921   1_554  S
C716        O722   1.276       .  A
C716        C966   1.491       .  S
C717        C986   1.481       .  S
H718        O719   0.966       .  S
O719       Ni727   1.913       .  S
O719       Ni721   1.921       .  S
O719       Ni726   1.902       .  S
O720       Ni721   1.938       .  S
Ni721       O725   1.950       .  S
Ni721       O723   1.930   1_556  S
O722       Ni727   1.943       .  S
C724        O725   1.277       .  A
C724       C1146   1.504       .  S
O729       Ni735   1.924       .  S
O729        C750   1.272       .  A
O730       Ni753   1.927       .  S
O730        C739   1.269       .  A
O731       Ni735   1.913       .  S
O731       Ni753   1.921       .  S
O731       Ni747   1.931       .  S
O731        H754   0.966       .  S
C732        O749   1.281       .  A
C732        O741   1.277       .  A
C732        C926   1.483       .  S
O733       Ni752   1.933       .  S
O733        C739   1.269       .  A
O734       Ni752   1.899       .  S
O734        C736   1.268       .  A
Ni735       O738   1.938       .  S
Ni735       O740   1.897       .  S
C736        O746   1.272       .  A
C736       C1186   1.479       .  S
O737       Ni753   1.903       .  S
O737        C743   1.268       .  A
O738        C743   1.274       .  A
C739       C1757   1.481       .  S
O740        C742   1.269       .  A
O741       Ni752   1.918       .  S
C742        O748   1.277       .  A
C742       C1026   1.477       .  S
C743        C897   1.480       .  S
H744        O745   0.966       .  S
O745       Ni753   1.901       .  S
O745       Ni747   1.912       .  S
O745       Ni752   1.907       .  S
O746       Ni747   1.923       .  S
Ni747       O751   1.930       .  S
Ni747       O749   1.930       .  S
O748       Ni753   1.946       .  S
C750        O751   1.275       .  A
C750        C937   1.496       .  S
O755       Ni761   1.929       .  S
O755        C776   1.272       .  A
O756       Ni779   1.924       .  S
O756        C765   1.268       .  A
O757       Ni761   1.918       .  S
O757       Ni779   1.926       .  S
O757       Ni773   1.925       .  S
O757        H780   0.966       .  S
C758        O775   1.280       .  A
C758        O767   1.277       .  A
C758        C906   1.487       .  S
O759       Ni778   1.929       .  S
O759        C765   1.270       .  A
O760       Ni778   1.906       .  S
O760        C762   1.268       .  A
Ni761       O764   1.926       .  S
Ni761       O766   1.910       .  S
C762        O772   1.272       .  A
C762       C1157   1.487       .  S
O763       Ni779   1.918       .  S
O763        C769   1.274       .  A
O764        C769   1.274       .  A
C765       C1726   1.479       .  S
O766        C768   1.271       .  A
O767       Ni778   1.920       .  S
C768        O774   1.273       .  A
C768        C957   1.485       .  S
C769        C917   1.488   1_556  S
H770        O771   0.967       .  S
O771       Ni779   1.908       .  S
O771       Ni773   1.908       .  S
O771       Ni778   1.907       .  S
O772       Ni773   1.932       .  S
Ni773       O777   1.915       .  S
Ni773       O775   1.928       .  S
O774       Ni779   1.936       .  S
C776        O777   1.269       .  A
C776        C877   1.485       .  S
O781       Ni787   1.929       .  S
O781        C802   1.273       .  A
O782       Ni805   1.922       .  S
O782        C791   1.271       .  A
O783       Ni787   1.917       .  S
O783       Ni805   1.910       .  S
O783       Ni799   1.918       .  S
O783        H806   0.966       .  S
C784        O801   1.268       .  A
C784        O793   1.268       .  A
C784        C857   1.484       .  S
O785       Ni804   1.916       .  S
O785        C791   1.270       .  A
O786       Ni804   1.902       .  S
O786        C788   1.275       .  A
Ni787       O790   1.939       .  S
Ni787       O792   1.908       .  S
C788        O798   1.283       .  A
C788       C1286   1.486       .  S
O789       Ni805   1.917       .  S
O789        C795   1.272       .  A
O790        C795   1.273       .  A
C791       C1886   1.483       .  S
O792        C794   1.272       .  A
O793       Ni804   1.924       .  S
C794        O800   1.276       .  A
C794       C1117   1.479       .  S
C795        C837   1.487       .  S
H796        O797   0.966       .  S
O797       Ni805   1.932       .  S
O797       Ni799   1.914       .  S
O797       Ni804   1.915       .  S
O798       Ni799   1.956       .  S
Ni799       O803   1.916       .  S
Ni799       O801   1.916       .  S
O800       Ni805   1.937       .  S
C802        O803   1.271       .  A
C802        C946   1.488       .  S
O807       Ni813   1.924       .  S
O807        C828   1.272       .  A
O808       Ni831   1.920       .  S
O808        C817   1.270       .  A
O809       Ni813   1.914       .  S
O809       Ni831   1.910       .  S
O809       Ni825   1.910       .  S
O809        H832   0.966       .  S
C810        O827   1.268       .  A
C810        O819   1.270       .  A
C810        C846   1.488       .  S
O811       Ni830   1.927       .  S
O811        C817   1.271       .  A
O812       Ni830   1.906       .  S
O812        C814   1.275       .  A
Ni813       O816   1.932       .  S
Ni813       O818   1.902       .  S
C814        O824   1.281       .  A
C814       C1246   1.484       .  S
O815       Ni831   1.914       .  S
O815        C821   1.272       .  A
O816        C821   1.274       .  A
C817       C1846   1.484       .  S
O818        C820   1.269       .  A
O819       Ni830   1.932       .  S
C820        O826   1.276       .  A
C820       C1046   1.481       .  S
C821        C866   1.484       .  S
H822        O823   0.966       .  S
O823       Ni831   1.936       .  S
O823       Ni825   1.919       .  S
O823       Ni830   1.918       .  S
O824       Ni825   1.949       .  S
Ni825       O829   1.918       .  S
Ni825       O827   1.918       .  S
O826       Ni831   1.942       .  S
C828        O829   1.272       .  A
C828        C886   1.488       .  S
C833        C834   1.407       .  A
C833        C838   1.401   1_556  A
C833        H843   1.082       .  S
C834        C839   1.497       .  S
C834        C835   1.410       .  A
C835        C836   1.401   1_556  A
C835        H840   1.082       .  S
C836        C837   1.404       .  A
C836        H841   1.083       .  S
C837        C838   1.408       .  A
C838        H842   1.083       .  S
C839        C844   1.411       .  A
C839        C848   1.406       .  A
C844        C845   1.405       .  A
C844        H849   1.082       .  S
C845        C846   1.406       .  A
C845        H850   1.083       .  S
C846        C847   1.407       .  A
C847        C848   1.397       .  A
C847        H851   1.083       .  S
C848        H852   1.082       .  S
C853        C854   1.406       .  A
C853        C858   1.395       .  A
C853        H863   1.082       .  S
C854        C859   1.496       .  S
C854        C855   1.412       .  A
C855        C856   1.402       .  A
C855        H860   1.082       .  S
C856        C857   1.404       .  A
C856        H861   1.083       .  S
C857        C858   1.406       .  A
C858        H862   1.083       .  S
C859        C864   1.411       .  A
C859        C868   1.407       .  A
C864        C865   1.401       .  A
C864        H869   1.082       .  S
C865        C866   1.403       .  A
C865        H870   1.083       .  S
C866        C867   1.407       .  A
C867        C868   1.397       .  A
C867        H871   1.083       .  S
C868        H872   1.082       .  S
C873        C874   1.403       .  A
C873        C878   1.397       .  A
C873        H883   1.083       .  S
C874        C879   1.489       .  S
C874        C875   1.409       .  A
C875        C876   1.404       .  A
C875        H880   1.083       .  S
C876        C877   1.405       .  A
C876        H881   1.083       .  S
C877        C878   1.407       .  A
C878        H882   1.083       .  S
C879        C884   1.402       .  A
C879        C888   1.409       .  A
C884        C885   1.396       .  A
C884        H889   1.083       .  S
C885        C886   1.409       .  A
C885        H890   1.083       .  S
C886        C887   1.406       .  A
C887        C888   1.404       .  A
C887        H891   1.083       .  S
C888        H892   1.083       .  S
C893        C894   1.405       .  A
C893        C898   1.397       .  A
C893        H903   1.083       .  S
C894        C899   1.489       .  S
C894        C895   1.408       .  A
C895        C896   1.398       .  A
C895        H900   1.083       .  S
C896        C897   1.404       .  A
C896        H901   1.083       .  S
C897        C898   1.406       .  A
C898        H902   1.083       .  S
C899        C904   1.409       .  A
C899        C908   1.403       .  A
C904        C905   1.402       .  A
C904        H909   1.083       .  S
C905        C906   1.406       .  A
C905        H910   1.083       .  S
C906        C907   1.408       .  A
C907        C908   1.395       .  A
C907        H911   1.083       .  S
C908        H912   1.083       .  S
C913        C914   1.409       .  A
C913        C918   1.402       .  A
C913        H923   1.083       .  S
C914        C919   1.491       .  S
C914        C915   1.405       .  A
C915        C916   1.398       .  A
C915        H920   1.083       .  S
C916        C917   1.409       .  A
C916        H921   1.083       .  S
C917        C918   1.406       .  A
C918        H922   1.083       .  S
C919        C924   1.405       .  A
C919        C928   1.409       .  A
C924        C925   1.398       .  A
C924        H929   1.083       .  S
C925        C926   1.407       .  A
C925        H930   1.083       .  S
C926        C927   1.404       .  A
C927        C928   1.401       .  A
C927        H931   1.083       .  S
C928        H932   1.083       .  S
C933        C934   1.405       .  A
C933        C938   1.398       .  A
C933        H943   1.083       .  S
C934        C939   1.500       .  S
C934        C935   1.412       .  A
C935        C936   1.408       .  A
C935        H940   1.082       .  S
C936        C937   1.406       .  A
C936        H941   1.083       .  S
C937        C938   1.410       .  A
C938        H942   1.083       .  S
C939        C944   1.406       .  A
C939        C948   1.412       .  A
C944        C945   1.400       .  A
C944        H949   1.082       .  S
C945        C946   1.407       .  A
C945        H950   1.083       .  S
C946        C947   1.405       .  A
C947        C948   1.405       .  A
C947        H951   1.083       .  S
C948        H952   1.082       .  S
C953        C954   1.409       .  A
C953        C958   1.396       .  A
C953        H963   1.082       .  S
C954        C959   1.498       .  S
C954        C955   1.409       .  A
C955        C956   1.406       .  A
C955        H960   1.082       .  S
C956        C957   1.408       .  A
C956        H961   1.083       .  S
C957        C958   1.403       .  A
C958        H962   1.083       .  S
C959        C964   1.406       .  A
C959        C968   1.410       .  A
C964        C965   1.394       .  A
C964        H969   1.082       .  S
C965        C966   1.406       .  A
C965        H970   1.083       .  S
C966        C967   1.408       .  A
C967        C968   1.408       .  A
C967        H971   1.083       .  S
C968        H972   1.082       .  S
C973        C974   1.408       .  A
C973        C978   1.400       .  A
C973        H983   1.083       .  S
C974        C979   1.485       .  S
C974        C975   1.403       .  A
C975        C976   1.394       .  A
C975        H980   1.083       .  S
C976        C977   1.407       .  A
C976        H981   1.083       .  S
C977        C978   1.404       .  A
C978        H982   1.083       .  S
C979        C984   1.402       .  A
C979        C988   1.408       .  A
C984        C985   1.395       .  A
C984        H989   1.083       .  S
C985        C986   1.408       .  A
C985        H990   1.083       .  S
C986        C987   1.404       .  A
C987        C988   1.399       .  A
C987        H991   1.083       .  S
C988        H992   1.083       .  S
C993        C994   1.411       .  A
C993        C998   1.403       .  A
C993       H1003   1.082       .  S
C994        C999   1.495       .  S
C994        C995   1.405       .  A
C995        C996   1.395       .  A
C995       H1000   1.082       .  S
C996        C997   1.408       .  A
C996       H1001   1.083       .  S
C997        C998   1.404       .  A
C998       H1002   1.083       .  S
C999       C1004   1.406       .  A
C999       C1008   1.411       .  A
C1004      C1005   1.398       .  A
C1004      H1009   1.082       .  S
C1005      C1006   1.408       .  A
C1005      H1010   1.083       .  S
C1006      C1007   1.404       .  A
C1007      C1008   1.400       .  A
C1007      H1011   1.083       .  S
C1008      H1012   1.082       .  S
C1013      C1014   1.403       .  A
C1013      C1018   1.391       .  A
C1013      H1023   1.083       .  S
C1014      C1019   1.479       .  S
C1014      C1015   1.405       .  A
C1015      C1016   1.401       .  A
C1015      H1020   1.083       .  S
C1016      C1017   1.406       .  A
C1016      H1021   1.083       .  S
C1017      C1018   1.404       .  A
C1018      H1022   1.083       .  S
C1019      C1024   1.404       .  A
C1019      C1028   1.404       .  A
C1024      C1025   1.392       .  A
C1024      H1029   1.083       .  S
C1025      C1026   1.404       .  A
C1025      H1030   1.083       .  S
C1026      C1027   1.407       .  A
C1027      C1028   1.400       .  A
C1027      H1031   1.083       .  S
C1028      H1032   1.083       .  S
C1033      C1034   1.406       .  A
C1033      C1038   1.401       .  A
C1033      H1043   1.083       .  S
C1034      C1039   1.485       .  S
C1034      C1035   1.406       .  A
C1035      C1036   1.394       .  A
C1035      H1040   1.083       .  S
C1036      C1037   1.404       .  A
C1036      H1041   1.083       .  S
C1037      C1038   1.405       .  A
C1038      H1042   1.083       .  S
C1039      C1044   1.406       .  A
C1039      C1048   1.405       .  A
C1044      C1045   1.399       .  A
C1044      H1049   1.083       .  S
C1045      C1046   1.406       .  A
C1045      H1050   1.083       .  S
C1046      C1047   1.406       .  A
C1047      C1048   1.396       .  A
C1047      H1051   1.083       .  S
C1048      H1052   1.083       .  S
C1053      C1054   1.406       .  A
C1053      C1058   1.397       .  A
C1053      H1063   1.083       .  S
C1054      C1059   1.502       .  S
C1054      C1055   1.411       .  A
C1055      C1056   1.412       .  A
C1055      H1060   1.082       .  S
C1056      C1057   1.408       .  A
C1056      H1061   1.083       .  S
C1057      C1058   1.409       .  A
C1058      H1062   1.083       .  S
C1059      C1064   1.406       .  A
C1059      C1068   1.411       .  A
C1064      C1065   1.397       .  A
C1064      H1069   1.083       .  S
C1065      C1066   1.409       .  A
C1065      H1070   1.083       .  S
C1066      C1067   1.409       .  A
C1067      C1068   1.411       .  A
C1067      H1071   1.083       .  S
C1068      H1072   1.082       .  S
C1073      C1074   1.410       .  A
C1073      C1078   1.399       .  A
C1073      H1083   1.082       .  S
C1074      C1079   1.496       .  S
C1074      C1075   1.407       .  A
C1075      C1076   1.399       .  A
C1075      H1080   1.082       .  S
C1076      C1077   1.407       .  A
C1076      H1081   1.083       .  S
C1077      C1078   1.404       .  A
C1078      H1082   1.083       .  S
C1079      C1084   1.406       .  A
C1079      C1088   1.410       .  A
C1084      C1085   1.396       .  A
C1084      H1089   1.082       .  S
C1085      C1086   1.407       .  A
C1085      H1090   1.083       .  S
C1086      C1087   1.406       .  A
C1087      C1088   1.402       .  A
C1087      H1091   1.083       .  S
C1088      H1092   1.082       .  S
C1093      C1094   1.407       .  A
C1093      C1098   1.397       .  A
C1093      H1103   1.082       .  S
C1094      C1099   1.497       .  S
C1094      C1095   1.411       .  A
C1095      C1096   1.402       .  A
C1095      H1100   1.082       .  S
C1096      C1097   1.405       .  A
C1096      H1101   1.083       .  S
C1097      C1098   1.407       .  A
C1098      H1102   1.083       .  S
C1099      C1104   1.410       .  A
C1099      C1108   1.407       .  A
C1104      C1105   1.400       .  A
C1104      H1109   1.082       .  S
C1105      C1106   1.405       .  A
C1105      H1110   1.083       .  S
C1106      C1107   1.406       .  A
C1107      C1108   1.398       .  A
C1107      H1111   1.083       .  S
C1108      H1112   1.082       .  S
C1113      C1114   1.406       .  A
C1113      C1118   1.394       .  A
C1113      H1123   1.083       .  S
C1114      C1119   1.482       .  S
C1114      C1115   1.404       .  A
C1115      C1116   1.397       .  A
C1115      H1120   1.083       .  S
C1116      C1117   1.408       .  A
C1116      H1121   1.083       .  S
C1117      C1118   1.403       .  A
C1118      H1122   1.083       .  S
C1119      C1124   1.404       .  A
C1119      C1128   1.407       .  A
C1124      C1125   1.390       .  A
C1124      H1129   1.083       .  S
C1125      C1126   1.403       .  A
C1125      H1130   1.083       .  S
C1126      C1127   1.406       .  A
C1127      C1128   1.402       .  A
C1127      H1131   1.083       .  S
C1128      H1132   1.083       .  S
C1133      C1134   1.408       .  A
C1133      C1138   1.400       .  A
C1133      H1143   1.082       .  S
C1134      C1139   1.511       .  S
C1134      C1135   1.413       .  A
C1135      C1136   1.415       .  A
C1135      H1140   1.082       .  S
C1136      C1137   1.411       .  A
C1136      H1141   1.083       .  S
C1137      C1138   1.408       .  A
C1138      H1142   1.083       .  S
C1139      C1144   1.408   1_554  A
C1139      C1148   1.414       .  A
C1144      C1145   1.399       .  A
C1144      H1149   1.082       .  S
C1145      C1146   1.408       .  A
C1145      H1150   1.083       .  S
C1146      C1147   1.410   1_556  A
C1147      C1148   1.417       .  A
C1147      H1151   1.083       .  S
C1148      H1152   1.082       .  S
C1153      C1154   1.406       .  A
C1153      C1158   1.395       .  A
C1153      H1163   1.083       .  S
C1154      C1159   1.490       .  S
C1154      C1155   1.407       .  A
C1155      C1156   1.405       .  A
C1155      H1160   1.083       .  S
C1156      C1157   1.409       .  A
C1156      H1161   1.083       .  S
C1157      C1158   1.405       .  A
C1158      H1162   1.083       .  S
C1159      C1164   1.408       .  A
C1159      C1168   1.405       .  A
C1164      C1165   1.405       .  A
C1164      H1169   1.083       .  S
C1165      C1166   1.408       .  A
C1165      H1170   1.083       .  S
C1166      C1167   1.405       .  A
C1167      C1168   1.394       .  A
C1167      H1171   1.083       .  S
C1168      H1172   1.083       .  S
C1173      C1174   1.408       .  A
C1173      C1178   1.401       .  A
C1173      H1183   1.083       .  S
C1174      C1179   1.481       .  S
C1174      C1175   1.403       .  A
C1175      C1176   1.389       .  A
C1175      H1180   1.083       .  S
C1176      C1177   1.404       .  A
C1176      H1181   1.084       .  S
C1177      C1178   1.403       .  A
C1178      H1182   1.083       .  S
C1179      C1184   1.405       .  A
C1179      C1188   1.405       .  A
C1184      C1185   1.399       .  A
C1184      H1189   1.083       .  S
C1185      C1186   1.406       .  A
C1185      H1190   1.083       .  S
C1186      C1187   1.405       .  A
C1187      C1188   1.391       .  A
C1187      H1191   1.083       .  S
C1188      H1192   1.083       .  S
C1193      C1194   1.406       .  A
C1193      C1198   1.394       .  A
C1193      H1203   1.081       .  S
C1194      C1199   1.499       .  S
C1194      C1195   1.413       .  A
C1195      C1196   1.404       .  A
C1195      H1200   1.082       .  S
C1196      C1197   1.405       .  A
C1196      H1201   1.083       .  S
C1197      C1198   1.407       .  A
C1198      H1202   1.083       .  S
C1199      C1204   1.413       .  A
C1199      C1208   1.407       .  A
C1204      C1205   1.401       .  A
C1204      H1209   1.081       .  S
C1205      C1206   1.402       .  A
C1205      H1210   1.083       .  S
C1206      C1207   1.406       .  A
C1207      C1208   1.398       .  A
C1207      H1211   1.083       .  S
C1208      H1212   1.082       .  S
C1213      C1214   1.402       .  A
C1213      C1218   1.391   1_554  A
C1213      H1223   1.083       .  S
C1214      C1219   1.485       .  S
C1214      C1215   1.408   1_554  A
C1215      C1216   1.403       .  A
C1215      H1220   1.083   1_556  S
C1216      C1217   1.406       .  A
C1216      H1221   1.083       .  S
C1217      C1218   1.407       .  A
C1218      H1222   1.083       .  S
C1219      C1224   1.407       .  A
C1219      C1228   1.405       .  A
C1224      C1225   1.395       .  A
C1224      H1229   1.083       .  S
C1225      C1226   1.402       .  A
C1225      H1230   1.083       .  S
C1226      C1227   1.407       .  A
C1227      C1228   1.399       .  A
C1227      H1231   1.083       .  S
C1228      H1232   1.083       .  S
C1233      C1234   1.408       .  A
C1233      C1238   1.402       .  A
C1233      H1243   1.083       .  S
C1234      C1239   1.488       .  S
C1234      C1235   1.406       .  A
C1235      C1236   1.395       .  A
C1235      H1240   1.083       .  S
C1236      C1237   1.403       .  A
C1236      H1241   1.083       .  S
C1237      C1238   1.406       .  A
C1238      H1242   1.083       .  S
C1239      C1244   1.406       .  A
C1239      C1248   1.406       .  A
C1244      C1245   1.402       .  A
C1244      H1249   1.083       .  S
C1245      C1246   1.408       .  A
C1245      H1250   1.083       .  S
C1246      C1247   1.405       .  A
C1247      C1248   1.395       .  A
C1247      H1251   1.083       .  S
C1248      H1252   1.083       .  S
C1253      C1254   1.406       .  A
C1253      C1258   1.402       .  A
C1253      H1263   1.083       .  S
C1254      C1259   1.480       .  S
C1254      C1255   1.401       .  A
C1255      C1256   1.394       .  A
C1255      H1260   1.083       .  S
C1256      C1257   1.405       .  A
C1256      H1261   1.083       .  S
C1257      C1258   1.406       .  A
C1258      H1262   1.083       .  S
C1259      C1264   1.401       .  A
C1259      C1268   1.406       .  A
C1264      C1265   1.397       .  A
C1264      H1269   1.083       .  S
C1265      C1266   1.409       .  A
C1265      H1270   1.083       .  S
C1266      C1267   1.404       .  A
C1267      C1268   1.400       .  A
C1267      H1271   1.083       .  S
C1268      H1272   1.083       .  S
C1273      C1274   1.409       .  A
C1273      C1278   1.405       .  A
C1273      H1283   1.082       .  S
C1274      C1279   1.495       .  S
C1274      C1275   1.407       .  A
C1275      C1276   1.395       .  A
C1275      H1280   1.082       .  S
C1276      C1277   1.404       .  A
C1276      H1281   1.083       .  S
C1277      C1278   1.407       .  A
C1278      H1282   1.083       .  S
C1279      C1284   1.409       .  A
C1279      C1288   1.407       .  A
C1284      C1285   1.405       .  A
C1284      H1289   1.082       .  S
C1285      C1286   1.408       .  A
C1285      H1290   1.083       .  S
C1286      C1287   1.405       .  A
C1287      C1288   1.395       .  A
C1287      H1291   1.083       .  S
C1288      H1292   1.082       .  S
C1293      C1294   1.408       .  A
C1293      C1298   1.401       .  A
C1293      H1303   1.083       .  S
C1294      C1299   1.488       .  S
C1294      C1295   1.403       .  A
C1295      C1296   1.397       .  A
C1295      H1300   1.083       .  S
C1296      C1297   1.410       .  A
C1296      H1301   1.083       .  S
C1297      C1298   1.405       .  A
C1298      H1302   1.083       .  S
C1299      C1304   1.403       .  A
C1299      C1308   1.409       .  A
C1304      C1305   1.395       .  A
C1304      H1309   1.083       .  S
C1305      C1306   1.407       .  A
C1305      H1310   1.083       .  S
C1306      C1307   1.406       .  A
C1307      C1308   1.402       .  A
C1307      H1311   1.083       .  S
C1308      H1312   1.083       .  S
C1313      C1314   1.402       .  A
C1313      C1318   1.394       .  A
C1313      H1323   1.083       .  S
C1314      C1319   1.486       .  S
C1314      C1315   1.409       .  A
C1315      C1316   1.402       .  A
C1315      H1320   1.083       .  S
C1316      C1317   1.406       .  A
C1316      H1321   1.083       .  S
C1317      C1318   1.408       .  A
C1318      H1322   1.083       .  S
C1319      C1324   1.408       .  A
C1319      C1328   1.403       .  A
C1324      C1325   1.399       .  A
C1324      H1329   1.083       .  S
C1325      C1326   1.405       .  A
C1325      H1330   1.083       .  S
C1326      C1327   1.409       .  A
C1327      C1328   1.397       .  A
C1327      H1331   1.083       .  S
C1328      H1332   1.083       .  S
C1333      C1334   1.408       .  A
C1333      C1338   1.405       .  A
C1333      H1343   1.083       .  S
C1334      C1339   1.491       .  S
C1334      C1335   1.404       .  A
C1335      C1336   1.399       .  A
C1335      H1340   1.083       .  S
C1336      C1337   1.408       .  A
C1336      H1341   1.083       .  S
C1337      C1338   1.407       .  A
C1338      H1342   1.083       .  S
C1339      C1344   1.404       .  A
C1339      C1348   1.409       .  A
C1344      C1345   1.400       .  A
C1344      H1349   1.083       .  S
C1345      C1346   1.407       .  A
C1345      H1350   1.083       .  S
C1346      C1347   1.405       .  A
C1347      C1348   1.404       .  A
C1347      H1351   1.083       .  S
C1348      H1352   1.083       .  S
C1353      C1354   1.408       .  A
C1353      C1358   1.401       .  A
C1353      H1363   1.082       .  S
C1354      C1359   1.488   1_655  S
C1354      C1355   1.408       .  A
C1355      C1356   1.393       .  A
C1355      H1360   1.082       .  S
C1356      C1357   1.400       .  A
C1356      H1361   1.084       .  S
C1357      C1358   1.404       .  A
C1358      H1362   1.083       .  S
C1359      C1364   1.409       .  A
C1359      C1368   1.405       .  A
C1364      C1365   1.403       .  A
C1364      H1369   1.082       .  S
C1365      C1366   1.405       .  A
C1365      H1370   1.083       .  S
C1366      C1367   1.403       .  A
C1367      C1368   1.391       .  A
C1367      H1371   1.083       .  S
C1368      H1372   1.083       .  S
C1373      C1374   1.404       .  A
C1373      C1378   1.394       .  A
C1373      H1383   1.083       .  S
C1374      C1379   1.488       .  S
C1374      C1375   1.407       .  A
C1375      C1376   1.405       .  A
C1375      H1380   1.083       .  S
C1376      C1377   1.408       .  A
C1376      H1381   1.083       .  S
C1377      C1378   1.407       .  A
C1378      H1382   1.083       .  S
C1379      C1384   1.404       .  A
C1379      C1388   1.408       .  A
C1384      C1385   1.394       .  A
C1384      H1389   1.083       .  S
C1385      C1386   1.407       .  A
C1385      H1390   1.083       .  S
C1386      C1387   1.407       .  A
C1387      C1388   1.405       .  A
C1387      H1391   1.083       .  S
C1388      H1392   1.083       .  S
C1393      C1394   1.402       .  A
C1393      C1398   1.396       .  A
C1393      H1403   1.083       .  S
C1394      C1399   1.478   1_656  S
C1394      C1395   1.404   1_556  A
C1395      C1396   1.399   1_554  A
C1395      H1400   1.083       .  S
C1396      C1397   1.407       .  A
C1396      H1401   1.083   1_556  S
C1397      C1398   1.407       .  A
C1398      H1402   1.083       .  S
C1399      C1404   1.404   1_554  A
C1399      C1408   1.403       .  A
C1404      C1405   1.400   1_556  A
C1404      H1409   1.083       .  S
C1405      C1406   1.406       .  A
C1405      H1410   1.083       .  S
C1406      C1407   1.406       .  A
C1407      C1408   1.394       .  A
C1407      H1411   1.083       .  S
C1408      H1412   1.083   1_455  S
C1413      C1414   1.406       .  A
C1413      C1418   1.399       .  A
C1413      H1423   1.082       .  S
C1414      C1419   1.491       .  S
C1414      C1415   1.410       .  A
C1415      C1416   1.397       .  A
C1415      H1420   1.082       .  S
C1416      C1417   1.401       .  A
C1416      H1421   1.083       .  S
C1417      C1418   1.406       .  A
C1418      H1422   1.083       .  S
C1419      C1424   1.404       .  A
C1419      C1428   1.410       .  A
C1424      C1425   1.391       .  A
C1424      H1429   1.082       .  S
C1425      C1426   1.406       .  A
C1425      H1430   1.083       .  S
C1426      C1427   1.406       .  A
C1427      C1428   1.404       .  A
C1427      H1431   1.083       .  S
C1428      H1432   1.082       .  S
C1433      C1434   1.401       .  A
C1433      C1438   1.391       .  A
C1433      H1443   1.083       .  S
C1434      C1439   1.489       .  S
C1434      C1435   1.411       .  A
C1435      C1436   1.406       .  A
C1435      H1440   1.083       .  S
C1436      C1437   1.407       .  A
C1436      H1441   1.083       .  S
C1437      C1438   1.408       .  A
C1438      H1442   1.083       .  S
C1439      C1444   1.410       .  A
C1439      C1448   1.403       .  A
C1444      C1445   1.399       .  A
C1444      H1449   1.083       .  S
C1445      C1446   1.403       .  A
C1445      H1450   1.083       .  S
C1446      C1447   1.409       .  A
C1447      C1448   1.398       .  A
C1447      H1451   1.083       .  S
C1448      H1452   1.083       .  S
C1453      C1454   1.408       .  A
C1453      C1458   1.407       .  A
C1453      H1463   1.083       .  S
C1454      C1459   1.487       .  S
C1454      C1455   1.403       .  A
C1455      C1456   1.390       .  A
C1455      H1460   1.083       .  S
C1456      C1457   1.406       .  A
C1456      H1461   1.083       .  S
C1457      C1458   1.409       .  A
C1458      H1462   1.083       .  S
C1459      C1464   1.407       .  A
C1459      C1468   1.406       .  A
C1464      C1465   1.404       .  A
C1464      H1469   1.083       .  S
C1465      C1466   1.407       .  A
C1465      H1470   1.083       .  S
C1466      C1467   1.402       .  A
C1467      C1468   1.394       .  A
C1467      H1471   1.083       .  S
C1468      H1472   1.083       .  S
C1473      C1474   1.406       .  A
C1473      C1478   1.395       .  A
C1473      H1483   1.083       .  S
C1474      C1479   1.486   1_655  S
C1474      C1475   1.406       .  A
C1475      C1476   1.403       .  A
C1475      H1480   1.083       .  S
C1476      C1477   1.407       .  A
C1476      H1481   1.083       .  S
C1477      C1478   1.405       .  A
C1478      H1482   1.083       .  S
C1479      C1484   1.403       .  A
C1479      C1488   1.407       .  A
C1484      C1485   1.394       .  A
C1484      H1489   1.083       .  S
C1485      C1486   1.406       .  A
C1485      H1490   1.083   1_556  S
C1486      C1487   1.407       .  A
C1487      C1488   1.405       .  A
C1487      H1491   1.083       .  S
C1488      H1492   1.083       .  S
C1493      C1494   1.407       .  A
C1493      C1498   1.400       .  A
C1493      H1503   1.083       .  S
C1494      C1499   1.495       .  S
C1494      C1495   1.408       .  A
C1495      C1496   1.406       .  A
C1495      H1500   1.083       .  S
C1496      C1497   1.405       .  A
C1496      H1501   1.083       .  S
C1497      C1498   1.406       .  A
C1498      H1502   1.083       .  S
C1499      C1504   1.405       .  A
C1499      C1508   1.409       .  A
C1504      C1505   1.398       .  A
C1504      H1509   1.083       .  S
C1505      C1506   1.409       .  A
C1505      H1510   1.083       .  S
C1506      C1507   1.408       .  A
C1507      C1508   1.408       .  A
C1507      H1511   1.083       .  S
C1508      H1512   1.083       .  S
C1513      C1514   1.401       .  A
C1513      C1518   1.397   1_556  A
C1513      H1523   1.083   1_556  S
C1514      C1519   1.486       .  S
C1514      C1515   1.408       .  A
C1515      C1516   1.406       .  A
C1515      H1520   1.083       .  S
C1516      C1517   1.407       .  A
C1516      H1521   1.083       .  S
C1517      C1518   1.409   1_556  A
C1518      H1522   1.083       .  S
C1519      C1524   1.408       .  A
C1519      C1528   1.402       .  A
C1524      C1525   1.404       .  A
C1524      H1529   1.083   1_556  S
C1525      C1526   1.406       .  A
C1525      H1530   1.083       .  S
C1526      C1527   1.408       .  A
C1527      C1528   1.399       .  A
C1527      H1531   1.083       .  S
C1528      H1532   1.083       .  S
C1533      C1534   1.404       .  A
C1533      C1538   1.392       .  A
C1533      H1543   1.083   1_655  S
C1534      C1539   1.476   1_655  S
C1534      C1535   1.403       .  A
C1535      C1536   1.400       .  A
C1535      H1540   1.083       .  S
C1536      C1537   1.409       .  A
C1536      H1541   1.083       .  S
C1537      C1538   1.403       .  A
C1538      H1542   1.083       .  S
C1539      C1544   1.400       .  A
C1539      C1548   1.405       .  A
C1544      C1545   1.392       .  A
C1544      H1549   1.084       .  S
C1545      C1546   1.408       .  A
C1545      H1550   1.083       .  S
C1546      C1547   1.407       .  A
C1547      C1548   1.402       .  A
C1547      H1551   1.083       .  S
C1548      H1552   1.083       .  S
C1553      C1554   1.406       .  A
C1553      C1558   1.402       .  A
C1553      H1563   1.083       .  S
C1554      C1559   1.485       .  S
C1554      C1555   1.404       .  A
C1555      C1556   1.397       .  A
C1555      H1560   1.083       .  S
C1556      C1557   1.406       .  A
C1556      H1561   1.083       .  S
C1557      C1558   1.408       .  A
C1558      H1562   1.083       .  S
C1559      C1564   1.406       .  A
C1559      C1568   1.404       .  A
C1564      C1565   1.401       .  A
C1564      H1569   1.083       .  S
C1565      C1566   1.405       .  A
C1565      H1570   1.083       .  S
C1566      C1567   1.408       .  A
C1567      C1568   1.399       .  A
C1567      H1571   1.083       .  S
C1568      H1572   1.083       .  S
C1573      C1574   1.404       .  A
C1573      C1578   1.403       .  A
C1573      H1583   1.083       .  S
C1574      C1579   1.481       .  S
C1574      C1575   1.402       .  A
C1575      C1576   1.399       .  A
C1575      H1580   1.083       .  S
C1576      C1577   1.409       .  A
C1576      H1581   1.083       .  S
C1577      C1578   1.409       .  A
C1578      H1582   1.083       .  S
C1579      C1584   1.401       .  A
C1579      C1588   1.406       .  A
C1584      C1585   1.398       .  A
C1584      H1589   1.083       .  S
C1585      C1586   1.408       .  A
C1585      H1590   1.083       .  S
C1586      C1587   1.406       .  A
C1587      C1588   1.404       .  A
C1587      H1591   1.083       .  S
C1588      H1592   1.083       .  S
C1593      C1594   1.404       .  A
C1593      C1598   1.387       .  A
C1593      H1603   1.083       .  S
C1594      C1599   1.481       .  S
C1594      C1595   1.408       .  A
C1595      C1596   1.401       .  A
C1595      H1600   1.083       .  S
C1596      C1597   1.403       .  A
C1596      H1601   1.083       .  S
C1597      C1598   1.400       .  A
C1598      H1602   1.084       .  S
C1599      C1604   1.407       .  A
C1599      C1608   1.405       .  A
C1604      C1605   1.389       .  A
C1604      H1609   1.083       .  S
C1605      C1606   1.399       .  A
C1605      H1610   1.083       .  S
C1606      C1607   1.406       .  A
C1607      C1608   1.399       .  A
C1607      H1611   1.083       .  S
C1608      H1612   1.083       .  S
C1613      C1614   1.413       .  A
C1613      C1618   1.416       .  A
C1613      H1623   1.083       .  S
C1614      C1619   1.513       .  S
C1614      C1615   1.409       .  A
C1615      C1616   1.403       .  A
C1615      H1620   1.083       .  S
C1616      C1617   1.408       .  A
C1616      H1621   1.083       .  S
C1617      C1618   1.411       .  A
C1618      H1622   1.083       .  S
C1619      C1624   1.409       .  A
C1619      C1628   1.413       .  A
C1624      C1625   1.402       .  A
C1624      H1629   1.082       .  S
C1625      C1626   1.407       .  A
C1625      H1630   1.083       .  S
C1626      C1627   1.410       .  A
C1627      C1628   1.416       .  A
C1627      H1631   1.083       .  S
C1628      H1632   1.082       .  S
C1633      C1634   1.413       .  A
C1633      C1638   1.413       .  A
C1633      H1643   1.082       .  S
C1634      C1639   1.514       .  S
C1634      C1635   1.412       .  A
C1635      C1636   1.404       .  A
C1635      H1640   1.082       .  S
C1636      C1637   1.405       .  A
C1636      H1641   1.083       .  S
C1637      C1638   1.408       .  A
C1638      H1642   1.083       .  S
C1639      C1644   1.416       .  A
C1639      C1648   1.407       .  A
C1644      C1645   1.417       .  A
C1644      H1649   1.082       .  S
C1645      C1646   1.409       .  A
C1645      H1650   1.083       .  S
C1646      C1647   1.410       .  A
C1647      C1648   1.399       .  A
C1647      H1651   1.083       .  S
C1648      H1652   1.082       .  S
C1653      C1654   1.411       .  A
C1653      C1658   1.412       .  A
C1653      H1663   1.082       .  S
C1654      C1659   1.502       .  S
C1654      C1655   1.407       .  A
C1655      C1656   1.397       .  A
C1655      H1660   1.083       .  S
C1656      C1657   1.406       .  A
C1656      H1661   1.084       .  S
C1657      C1658   1.406       .  A
C1658      H1662   1.083       .  S
C1659      C1664   1.406       .  A
C1659      C1668   1.411       .  A
C1664      C1665   1.396       .  A
C1664      H1669   1.083       .  S
C1665      C1666   1.408       .  A
C1665      H1670   1.083       .  S
C1666      C1667   1.410       .  A
C1667      C1668   1.413       .  A
C1667      H1671   1.083       .  S
C1668      H1672   1.083       .  S
C1673      C1674   1.408       .  A
C1673      C1678   1.398       .  A
C1673      H1683   1.083       .  S
C1674      C1679   1.479       .  S
C1674      C1675   1.403       .  A
C1675      C1676   1.393       .  A
C1675      H1680   1.083       .  S
C1676      C1677   1.404       .  A
C1676      H1681   1.083       .  S
C1677      C1678   1.401       .  A
C1678      H1682   1.083       .  S
C1679      C1684   1.401       .  A
C1679      C1688   1.407       .  A
C1684      C1685   1.392       .  A
C1684      H1689   1.083       .  S
C1685      C1686   1.409       .  A
C1685      H1690   1.083       .  S
C1686      C1687   1.404       .  A
C1687      C1688   1.398       .  A
C1687      H1691   1.083       .  S
C1688      H1692   1.083       .  S
C1693      C1694   1.411       .  A
C1693      C1698   1.402       .  A
C1693      H1703   1.083       .  S
C1694      C1699   1.489       .  S
C1694      C1695   1.403       .  A
C1695      C1696   1.394       .  A
C1695      H1700   1.083       .  S
C1696      C1697   1.407       .  A
C1696      H1701   1.083       .  S
C1697      C1698   1.404       .  A
C1698      H1702   1.083       .  S
C1699      C1704   1.403       .  A
C1699      C1708   1.410       .  A
C1704      C1705   1.395       .  A
C1704      H1709   1.083       .  S
C1705      C1706   1.409       .  A
C1705      H1710   1.083       .  S
C1706      C1707   1.405       .  A
C1707      C1708   1.402       .  A
C1707      H1711   1.083       .  S
C1708      H1712   1.083       .  S
C1713      C1714   1.407       .  A
C1713      C1718   1.392       .  A
C1713      H1723   1.082       .  S
C1714      C1719   1.504       .  S
C1714      C1715   1.414       .  A
C1715      C1716   1.413       .  A
C1715      H1720   1.082       .  S
C1716      C1717   1.407       .  A
C1716      H1721   1.083       .  S
C1717      C1718   1.405       .  A
C1718      H1722   1.083       .  S
C1719      C1724   1.411       .  A
C1719      C1728   1.411       .  A
C1724      C1725   1.397       .  A
C1724      H1729   1.082       .  S
C1725      C1726   1.400       .  A
C1725      H1730   1.083       .  S
C1726      C1727   1.405       .  A
C1727      C1728   1.407       .  A
C1727      H1731   1.083       .  S
C1728      H1732   1.082       .  S
C1733      C1734   1.411       .  A
C1733      C1738   1.405       .  A
C1733      H1743   1.082       .  S
C1734      C1739   1.496       .  S
C1734      C1735   1.407       .  A
C1735      C1736   1.393       .  A
C1735      H1740   1.082       .  S
C1736      C1737   1.405       .  A
C1736      H1741   1.083       .  S
C1737      C1738   1.405       .  A
C1738      H1742   1.083       .  S
C1739      C1744   1.409       .  A
C1739      C1748   1.407       .  A
C1744      C1745   1.405       .  A
C1744      H1749   1.082       .  S
C1745      C1746   1.407       .  A
C1745      H1750   1.083       .  S
C1746      C1747   1.405       .  A
C1747      C1748   1.393       .  A
C1747      H1751   1.083       .  S
C1748      H1752   1.082       .  S
C1753      C1754   1.411       .  A
C1753      C1758   1.405       .  A
C1753      H1763   1.082       .  S
C1754      C1759   1.507       .  S
C1754      C1755   1.413       .  A
C1755      C1756   1.403       .  A
C1755      H1760   1.082       .  S
C1756      C1757   1.403       .  A
C1756      H1761   1.083       .  S
C1757      C1758   1.403       .  A
C1758      H1762   1.083       .  S
C1759      C1764   1.415       .  A
C1759      C1768   1.407       .  A
C1764      C1765   1.412       .  A
C1764      H1769   1.082       .  S
C1765      C1766   1.406       .  A
C1765      H1770   1.083       .  S
C1766      C1767   1.408       .  A
C1767      C1768   1.397       .  A
C1767      H1771   1.083       .  S
C1768      H1772   1.082       .  S
C1773      C1774   1.407       .  A
C1773      C1778   1.400       .  A
C1773      H1783   1.083       .  S
C1774      C1779   1.480       .  S
C1774      C1775   1.401       .  A
C1775      C1776   1.391       .  A
C1775      H1780   1.083       .  S
C1776      C1777   1.406       .  A
C1776      H1781   1.083       .  S
C1777      C1778   1.406       .  A
C1778      H1782   1.083       .  S
C1779      C1784   1.403       .  A
C1779      C1788   1.407       .  A
C1784      C1785   1.396       .  A
C1784      H1789   1.083       .  S
C1785      C1786   1.408       .  A
C1785      H1790   1.083       .  S
C1786      C1787   1.401       .  A
C1787      C1788   1.395       .  A
C1787      H1791   1.083       .  S
C1788      H1792   1.083       .  S
C1793      C1794   1.404       .  A
C1793      C1798   1.397       .  A
C1793      H1803   1.083       .  S
C1794      C1799   1.491       .  S
C1794      C1795   1.409       .  A
C1795      C1796   1.401   1_554  A
C1795      H1800   1.082       .  S
C1796      C1797   1.405       .  A
C1796      H1801   1.083       .  S
C1797      C1798   1.408   1_556  A
C1798      H1802   1.083   1_554  S
C1799      C1804   1.410       .  A
C1799      C1808   1.404       .  A
C1804      C1805   1.402       .  A
C1804      H1809   1.083       .  S
C1805      C1806   1.404       .  A
C1805      H1810   1.083       .  S
C1806      C1807   1.406       .  A
C1807      C1808   1.396       .  A
C1807      H1811   1.083       .  S
C1808      H1812   1.083       .  S
C1813      C1814   1.406       .  A
C1813      C1818   1.397       .  A
C1813      H1823   1.083       .  S
C1814      C1819   1.493       .  S
C1814      C1815   1.408       .  A
C1815      C1816   1.404       .  A
C1815      H1820   1.083       .  S
C1816      C1817   1.407       .  A
C1816      H1821   1.083       .  S
C1817      C1818   1.408       .  A
C1818      H1822   1.083       .  S
C1819      C1824   1.405       .  A
C1819      C1828   1.408       .  A
C1824      C1825   1.396       .  A
C1824      H1829   1.083       .  S
C1825      C1826   1.407       .  A
C1825      H1830   1.083       .  S
C1826      C1827   1.406       .  A
C1827      C1828   1.403       .  A
C1827      H1831   1.083       .  S
C1828      H1832   1.082       .  S
C1833      C1834   1.408       .  A
C1833      C1838   1.407       .  A
C1833      H1843   1.083       .  S
C1834      C1839   1.489       .  S
C1834      C1835   1.403       .  A
C1835      C1836   1.400       .  A
C1835      H1840   1.083       .  S
C1836      C1837   1.408       .  A
C1836      H1841   1.083       .  S
C1837      C1838   1.405       .  A
C1838      H1842   1.083       .  S
C1839      C1844   1.404       .  A
C1839      C1848   1.408       .  A
C1844      C1845   1.401       .  A
C1844      H1849   1.083       .  S
C1845      C1846   1.405       .  A
C1845      H1850   1.083       .  S
C1846      C1847   1.406       .  A
C1847      C1848   1.407       .  A
C1847      H1851   1.083       .  S
C1848      H1852   1.083       .  S
C1853      C1854   1.408       .  A
C1853      C1858   1.403       .  A
C1853      H1863   1.083       .  S
C1854      C1859   1.491   1_565  S
C1854      C1855   1.404       .  A
C1855      C1856   1.402       .  A
C1855      H1860   1.083   1_565  S
C1856      C1857   1.409       .  A
C1856      H1861   1.083       .  S
C1857      C1858   1.406       .  A
C1858      H1862   1.083       .  S
C1859      C1864   1.403       .  A
C1859      C1868   1.408       .  A
C1864      C1865   1.399       .  A
C1864      H1869   1.083       .  S
C1865      C1866   1.408       .  A
C1865      H1870   1.083       .  S
C1866      C1867   1.409       .  A
C1867      C1868   1.407       .  A
C1867      H1871   1.083       .  S
C1868      H1872   1.083       .  S
C1873      C1874   1.403       .  A
C1873      C1878   1.399       .  A
C1873      H1883   1.083       .  S
C1874      C1879   1.483       .  S
C1874      C1875   1.406       .  A
C1875      C1876   1.405       .  A
C1875      H1880   1.083       .  S
C1876      C1877   1.405       .  A
C1876      H1881   1.083       .  S
C1877      C1878   1.405       .  A
C1878      H1882   1.083       .  S
C1879      C1884   1.407       .  A
C1879      C1888   1.402       .  A
C1884      C1885   1.406       .  A
C1884      H1889   1.083       .  S
C1885      C1886   1.405       .  A
C1885      H1890   1.083       .  S
C1886      C1887   1.407       .  A
C1887      C1888   1.397       .  A
C1887      H1891   1.083       .  S
C1888      H1892   1.083       .  S
C1893      C1894   1.404       .  A
C1893      C1898   1.397       .  A
C1893      H1903   1.082       .  S
C1894      C1899   1.491       .  S
C1894      C1895   1.410       .  A
C1895      C1896   1.398       .  A
C1895      H1900   1.082       .  S
C1896      C1897   1.403   1_556  A
C1896      H1901   1.083   1_556  S
C1897      C1898   1.409   1_554  A
C1898      H1902   1.083   1_556  S
C1899      C1904   1.411       .  A
C1899      C1908   1.404       .  A
C1904      C1905   1.404       .  A
C1904      H1909   1.082       .  S
C1905      C1906   1.405       .  A
C1905      H1910   1.083       .  S
C1906      C1907   1.406       .  A
C1907      C1908   1.392       .  A
C1907      H1911   1.083       .  S
C1908      H1912   1.082       .  S
C1913      C1914   1.408       .  A
C1913      C1918   1.396       .  A
C1913      H1923   1.082       .  S
C1914      C1919   1.488       .  S
C1914      C1915   1.405       .  A
C1915      C1916   1.398       .  A
C1915      H1920   1.083       .  S
C1916      C1917   1.408       .  A
C1916      H1921   1.083       .  S
C1917      C1918   1.403       .  A
C1918      H1922   1.083       .  S
C1919      C1924   1.404       .  A
C1919      C1928   1.408       .  A
C1924      C1925   1.393       .  A
C1924      H1929   1.083       .  S
C1925      C1926   1.406       .  A
C1925      H1930   1.083       .  S
C1926      C1927   1.405       .  A
C1927      C1928   1.401       .  A
C1927      H1931   1.083       .  S
C1928      H1932   1.082       .  S
C1933      C1934   1.405       .  A
C1933      C1938   1.401       .  A
C1933      H1943   1.083       .  S
C1934      C1939   1.496   1_545  S
C1934      C1935   1.410       .  A
C1935      C1936   1.405       .  A
C1935      H1940   1.083       .  S
C1936      C1937   1.405       .  A
C1936      H1941   1.083       .  S
C1937      C1938   1.408       .  A
C1938      H1942   1.083       .  S
C1939      C1944   1.410       .  A
C1939      C1948   1.404       .  A
C1944      C1945   1.407       .  A
C1944      H1949   1.083       .  S
C1945      C1946   1.406       .  A
C1945      H1950   1.083       .  S
C1946      C1947   1.409       .  A
C1947      C1948   1.400       .  A
C1947      H1951   1.083       .  S
C1948      H1952   1.083       .  S
C1953      C1954   1.415       .  A
C1953      C1958   1.416       .  A
C1953      H1963   1.082       .  S
C1954      C1959   1.511       .  S
C1954      C1955   1.407       .  A
C1955      C1956   1.399       .  A
C1955      H1960   1.082       .  S
C1956      C1957   1.407       .  A
C1956      H1961   1.083       .  S
C1957      C1958   1.409       .  A
C1958      H1962   1.083       .  S
C1959      C1964   1.411       .  A
C1959      C1968   1.410       .  A
C1964      C1965   1.412       .  A
C1964      H1969   1.082       .  S
C1965      C1966   1.410       .  A
C1965      H1970   1.083       .  S
C1966      C1967   1.409       .  A
C1967      C1968   1.403       .  A
C1967      H1971   1.083       .  S
C1968      H1972   1.082       .  S
C1973      C1974   1.408       .  A
C1973      C1978   1.407       .  A
C1973      H1983   1.083       .  S
C1974      C1979   1.496   1_565  S
C1974      C1975   1.404       .  A
C1975      C1976   1.405       .  A
C1975      H1980   1.083       .  S
C1976      C1977   1.412       .  A
C1976      H1981   1.083       .  S
C1977      C1978   1.407       .  A
C1978      H1982   1.083       .  S
C1979      C1984   1.403       .  A
C1979      C1988   1.410       .  A
C1984      C1985   1.400       .  A
C1984      H1989   1.083       .  S
C1985      C1986   1.409       .  A
C1985      H1990   1.083       .  S
C1986      C1987   1.408       .  A
C1987      C1988   1.411       .  A
C1987      H1991   1.083       .  S
C1988      H1992   1.083       .  S
C1993      C1994   1.405       .  A
C1993      C1998   1.395       .  A
C1993      H2003   1.083       .  S
C1994      C1999   1.490       .  S
C1994      C1995   1.407       .  A
C1995      C1996   1.405       .  A
C1995      H2000   1.083       .  S
C1996      C1997   1.408       .  A
C1996      H2001   1.083       .  S
C1997      C1998   1.407       .  A
C1998      H2002   1.083       .  S
C1999      C2004   1.403       .  A
C1999      C2008   1.409       .  A
C2004      C2005   1.393       .  A
C2004      H2009   1.083       .  S
C2005      C2006   1.408       .  A
C2005      H2010   1.083       .  S
C2006      C2007   1.407       .  A
C2007      C2008   1.406       .  A
C2007      H2011   1.083       .  S
C2008      H2012   1.083       .  S
C2013      C2014   1.405       .  A
C2013      C2018   1.396       .  A
C2013      H2023   1.083       .  S
C2014      C2019   1.508       .  S
C2014      C2015   1.415       .  A
C2015      C2016   1.417       .  A
C2015      H2020   1.082       .  S
C2016      C2017   1.408       .  A
C2016      H2021   1.083       .  S
C2017      C2018   1.410       .  A
C2018      H2022   1.083       .  S
C2019      C2024   1.409       .  A
C2019      C2028   1.410       .  A
C2024      C2025   1.400       .  A
C2024      H2029   1.082       .  S
C2025      C2026   1.408       .  A
C2025      H2030   1.083       .  S
C2026      C2027   1.411       .  A
C2027      C2028   1.412       .  A
C2027      H2031   1.083       .  S
C2028      H2032   1.082       .  S
C2033      C2034   1.402       .  A
C2033      C2038   1.392       .  A
C2033      H2043   1.083       .  S
C2034      C2039   1.482       .  S
C2034      C2035   1.408       .  A
C2035      C2036   1.399       .  A
C2035      H2040   1.083       .  S
C2036      C2037   1.404       .  A
C2036      H2041   1.083       .  S
C2037      C2038   1.408       .  A
C2038      H2042   1.083       .  S
C2039      C2044   1.409       .  A
C2039      C2048   1.402       .  A
C2044      C2045   1.397       .  A
C2044      H2049   1.083       .  S
C2045      C2046   1.403       .  A
C2045      H2050   1.083       .  S
C2046      C2047   1.408       .  A
C2047      C2048   1.392       .  A
C2047      H2051   1.083       .  S
C2048      H2052   1.083       .  S
C2053      C2054   1.410       .  A
C2053      C2058   1.404       .  A
C2053      H2063   1.083       .  S
C2054      C2059   1.486       .  S
C2054      C2055   1.401       .  A
C2055      C2056   1.393       .  A
C2055      H2060   1.083       .  S
C2056      C2057   1.408       .  A
C2056      H2061   1.083       .  S
C2057      C2058   1.405       .  A
C2058      H2062   1.083       .  S
C2059      C2064   1.402       .  A
C2059      C2068   1.409       .  A
C2064      C2065   1.396       .  A
C2064      H2069   1.083       .  S
C2065      C2066   1.409       .  A
C2065      H2070   1.083       .  S
C2066      C2067   1.404       .  A
C2067      C2068   1.400       .  A
C2067      H2071   1.083       .  S
C2068      H2072   1.083       .  S
C2073      C2074   1.403   1_554  A
C2073      C2078   1.401       .  A
C2073      H2083   1.083       .  S
C2074      C2079   1.492   1_565  S
C2074      C2075   1.408       .  A
C2075      C2076   1.409       .  A
C2075      H2080   1.083       .  S
C2076      C2077   1.409   1_556  A
C2076      H2081   1.083       .  S
C2077      C2078   1.409       .  A
C2078      H2082   1.083       .  S
C2079      C2084   1.409       .  A
C2079      C2088   1.402       .  A
C2084      C2085   1.409       .  A
C2084      H2089   1.083   1_556  S
C2085      C2086   1.407       .  A
C2085      H2090   1.083   1_556  S
C2086      C2087   1.411       .  A
C2087      C2088   1.402       .  A
C2087      H2091   1.083       .  S
C2088      H2092   1.083       .  S
C2093      C2094   1.410       .  A
C2093      C2098   1.408       .  A
C2093      H2103   1.082       .  S
C2094      C2099   1.489       .  S
C2094      C2095   1.403       .  A
C2095      C2096   1.388       .  A
C2095      H2100   1.083       .  S
C2096      C2097   1.406       .  A
C2096      H2101   1.083       .  S
C2097      C2098   1.407       .  A
C2098      H2102   1.083       .  S
C2099      C2104   1.407       .  A
C2099      C2108   1.406       .  A
C2104      C2105   1.404       .  A
C2104      H2109   1.083       .  S
C2105      C2106   1.409       .  A
C2105      H2110   1.083       .  S
C2106      C2107   1.404       .  A
C2107      C2108   1.390       .  A
C2107      H2111   1.083       .  S
C2108      H2112   1.083       .  S
C2113      C2114   1.403       .  A
C2113      C2118   1.391       .  A
C2113      H2123   1.083       .  S
C2114      C2119   1.485       .  S
C2114      C2115   1.407       .  A
C2115      C2116   1.404       .  A
C2115      H2120   1.083       .  S
C2116      C2117   1.406       .  A
C2116      H2121   1.083       .  S
C2117      C2118   1.406       .  A
C2118      H2122   1.083       .  S
C2119      C2124   1.405       .  A
C2119      C2128   1.406       .  A
C2124      C2125   1.393       .  A
C2124      H2129   1.083       .  S
C2125      C2126   1.404       .  A
C2125      H2130   1.083       .  S
C2126      C2127   1.408       .  A
C2127      C2128   1.403       .  A
C2127      H2131   1.083       .  S
C2128      H2132   1.083       .  S
C2133      C2134   1.408       .  A
C2133      C2138   1.394       .  A
C2133      H2143   1.082       .  S
C2134      C2139   1.501       .  S
C2134      C2135   1.411       .  A
C2135      C2136   1.409       .  A
C2135      H2140   1.082       .  S
C2136      C2137   1.406       .  A
C2136      H2141   1.083       .  S
C2137      C2138   1.405       .  A
C2138      H2142   1.083       .  S
C2139      C2144   1.409       .  A
C2139      C2148   1.412       .  A
C2144      C2145   1.395       .  A
C2144      H2149   1.082       .  S
C2145      C2146   1.401       .  A
C2145      H2150   1.084       .  S
C2146      C2147   1.404       .  A
C2147      C2148   1.407       .  A
C2147      H2151   1.083       .  S
C2148      H2152   1.082       .  S
C2153      C2154   1.406       .  A
C2153      C2158   1.403       .  A
C2153      H2163   1.083       .  S
C2154      C2159   1.487       .  S
C2154      C2155   1.406       .  A
C2155      C2156   1.394       .  A
C2155      H2160   1.083       .  S
C2156      C2157   1.404       .  A
C2156      H2161   1.083       .  S
C2157      C2158   1.408       .  A
C2158      H2162   1.083       .  S
C2159      C2164   1.409       .  A
C2159      C2168   1.403       .  A
C2164      C2165   1.406       .  A
C2164      H2169   1.083       .  S
C2165      C2166   1.407       .  A
C2165      H2170   1.083       .  S
C2166      C2167   1.405       .  A
C2167      C2168   1.391       .  A
C2167      H2171   1.083       .  S
C2168      H2172   1.083       .  S
C2173      C2174   1.411       .  A
C2173      C2178   1.406       .  A
C2173      H2183   1.082       .  S
C2174      C2179   1.499       .  S
C2174      C2175   1.409       .  A
C2175      C2176   1.395       .  A
C2175      H2180   1.082       .  S
C2176      C2177   1.401       .  A
C2176      H2181   1.084       .  S
C2177      C2178   1.404       .  A
C2178      H2182   1.083       .  S
C2179      C2184   1.413       .  A
C2179      C2188   1.407       .  A
C2184      C2185   1.410       .  A
C2184      H2189   1.082       .  S
C2185      C2186   1.406       .  A
C2185      H2190   1.083       .  S
C2186      C2187   1.403       .  A
C2187      C2188   1.391       .  A
C2187      H2191   1.084       .  S
C2188      H2192   1.082       .  S
C2193      C2194   1.409       .  A
C2193      C2198   1.402       .  A
C2193      H2203   1.082       .  S
C2194      C2199   1.487       .  S
C2194      C2195   1.404       .  A
C2195      C2196   1.391       .  A
C2195      H2200   1.082       .  S
C2196      C2197   1.405       .  A
C2196      H2201   1.083       .  S
C2197      C2198   1.405       .  A
C2198      H2202   1.083       .  S
C2199      C2204   1.405       .  A
C2199      C2208   1.408       .  A
C2204      C2205   1.398       .  A
C2204      H2209   1.083       .  S
C2205      C2206   1.408       .  A
C2205      H2210   1.083       .  S
C2206      C2207   1.401       .  A
C2207      C2208   1.395       .  A
C2207      H2211   1.083       .  S
C2208      H2212   1.082       .  S
C2213      C2214   1.406       .  A
C2213      C2218   1.397       .  A
C2213      H2223   1.082       .  S
C2214      C2219   1.494       .  S
C2214      C2215   1.410       .  A
C2215      C2216   1.400       .  A
C2215      H2220   1.082       .  S
C2216      C2217   1.404       .  A
C2216      H2221   1.083       .  S
C2217      C2218   1.406       .  A
C2218      H2222   1.083       .  S
C2219      C2224   1.410       .  A
C2219      C2228   1.406       .  A
C2224      C2225   1.401   1_554  A
C2224      H2229   1.082       .  S
C2225      C2226   1.405       .  A
C2225      H2230   1.083       .  S
C2226      C2227   1.406       .  A
C2227      C2228   1.396   1_556  A
C2227      H2231   1.083       .  S
C2228      H2232   1.082       .  S
C2233      C2234   1.406       .  A
C2233      C2238   1.392       .  A
C2233      H2243   1.083       .  S
C2234      C2239   1.487   1_655  S
C2234      C2235   1.407       .  A
C2235      C2236   1.403       .  A
C2235      H2240   1.083       .  S
C2236      C2237   1.407       .  A
C2236      H2241   1.083       .  S
C2237      C2238   1.404       .  A
C2238      H2242   1.083       .  S
C2239      C2244   1.403       .  A
C2239      C2248   1.409       .  A
C2244      C2245   1.390       .  A
C2244      H2249   1.083       .  S
C2245      C2246   1.405       .  A
C2245      H2250   1.083       .  S
C2246      C2247   1.407       .  A
C2247      C2248   1.406       .  A
C2247      H2251   1.083       .  S
C2248      H2252   1.083       .  S
C2253      C2254   1.409       .  A
C2253      C2258   1.394       .  A
C2253      H2263   1.082       .  S
C2254      C2259   1.495       .  S
C2254      C2255   1.411       .  A
C2255      C2256   1.403       .  A
C2255      H2260   1.082       .  S
C2256      C2257   1.402       .  A
C2256      H2261   1.083       .  S
C2257      C2258   1.400       .  A
C2258      H2262   1.084       .  S
C2259      C2264   1.407       .  A
C2259      C2268   1.411       .  A
C2264      C2265   1.391       .  A
C2264      H2269   1.082       .  S
C2265      C2266   1.405       .  A
C2265      H2270   1.083       .  S
C2266      C2267   1.405       .  A
C2267      C2268   1.406       .  A
C2267      H2271   1.083       .  S
C2268      H2272   1.082       .  S
C2273      C2274   1.407       .  A
C2273      C2278   1.401       .  A
C2273      H2283   1.082       .  S
C2274      C2279   1.485       .  S
C2274      C2275   1.405       .  A
C2275      C2276   1.391       .  A
C2275      H2280   1.083       .  S
C2276      C2277   1.404       .  A
C2276      H2281   1.083       .  S
C2277      C2278   1.405       .  A
C2278      H2282   1.083       .  S
C2279      C2284   1.406       .  A
C2279      C2288   1.406       .  A
C2284      C2285   1.400       .  A
C2284      H2289   1.083       .  S
C2285      C2286   1.406       .  A
C2285      H2290   1.083       .  S
C2286      C2287   1.404       .  A
C2287      C2288   1.392       .  A
C2287      H2291   1.083       .  S
C2288      H2292   1.083       .  S
C2293      C2294   1.406       .  A
C2293      C2298   1.400       .  A
C2293      H2303   1.082       .  S
C2294      C2299   1.485   1_655  S
C2294      C2295   1.405       .  A
C2295      C2296   1.392       .  A
C2295      H2300   1.083       .  S
C2296      C2297   1.406       .  A
C2296      H2301   1.083       .  S
C2297      C2298   1.406       .  A
C2298      H2302   1.083       .  S
C2299      C2304   1.409       .  A
C2299      C2308   1.404       .  A
C2304      C2305   1.401       .  A
C2304      H2309   1.082       .  S
C2305      C2306   1.404       .  A
C2305      H2310   1.083       .  S
C2306      C2307   1.406       .  A
C2307      C2308   1.390       .  A
C2307      H2311   1.083       .  S
C2308      H2312   1.083       .  S
C2313      C2314   1.414       .  A
C2313      C2318   1.417       .  A
C2313      H2323   1.082       .  S
C2314      C2319   1.510       .  S
C2314      C2315   1.405       .  A
C2315      C2316   1.399       .  A
C2315      H2320   1.083       .  S
C2316      C2317   1.410       .  A
C2316      H2321   1.083       .  S
C2317      C2318   1.410       .  A
C2318      H2322   1.083       .  S
C2319      C2324   1.409       .  A
C2319      C2328   1.411       .  A
C2324      C2325   1.403       .  A
C2324      H2329   1.083       .  S
C2325      C2326   1.409       .  A
C2325      H2330   1.083       .  S
C2326      C2327   1.411       .  A
C2327      C2328   1.414       .  A
C2327      H2331   1.083       .  S
C2328      H2332   1.083       .  S
C2333      C2334   1.408       .  A
C2333      C2338   1.403       .  A
C2333      H2343   1.083       .  S
C2334      C2339   1.490       .  S
C2334      C2335   1.404       .  A
C2335      C2336   1.396       .  A
C2335      H2340   1.083       .  S
C2336      C2337   1.408       .  A
C2336      H2341   1.083       .  S
C2337      C2338   1.406       .  A
C2338      H2342   1.083       .  S
C2339      C2344   1.404       .  A
C2339      C2348   1.409       .  A
C2344      C2345   1.398       .  A
C2344      H2349   1.083       .  S
C2345      C2346   1.410       .  A
C2345      H2350   1.083       .  S
C2346      C2347   1.404       .  A
C2347      C2348   1.400       .  A
C2347      H2351   1.083       .  S
C2348      H2352   1.083       .  S
C2353      C2354   1.408       .  A
C2353      C2358   1.400       .  A
C2353      H2363   1.083       .  S
C2354      C2359   1.482       .  S
C2354      C2355   1.401       .  A
C2355      C2356   1.394       .  A
C2355      H2360   1.083       .  S
C2356      C2357   1.410       .  A
C2356      H2361   1.083       .  S
C2357      C2358   1.403       .  A
C2358      H2362   1.083       .  S
C2359      C2364   1.401       .  A
C2359      C2368   1.407       .  A
C2364      C2365   1.395       .  A
C2364      H2369   1.083       .  S
C2365      C2366   1.408       .  A
C2365      H2370   1.083       .  S
C2366      C2367   1.406       .  A
C2367      C2368   1.400       .  A
C2367      H2371   1.083       .  S
C2368      H2372   1.083       .  S
C2373      C2374   1.403       .  A
C2373      C2378   1.387       .  A
C2373      H2383   1.083       .  S
C2374      C2379   1.487       .  S
C2374      C2375   1.409       .  A
C2375      C2376   1.407       .  A
C2375      H2380   1.083       .  S
C2376      C2377   1.409       .  A
C2376      H2381   1.083       .  S
C2377      C2378   1.404       .  A
C2378      H2382   1.083       .  S
C2379      C2384   1.408       .  A
C2379      C2388   1.405       .  A
C2384      C2385   1.405       .  A
C2384      H2389   1.083       .  S
C2385      C2386   1.407       .  A
C2385      H2390   1.083       .  S
C2386      C2387   1.403       .  A
C2387      C2388   1.389       .  A
C2387      H2391   1.083       .  S
C2388      H2392   1.083       .  S
C2393      C2394   1.409       .  A
C2393      C2398   1.412       .  A
C2393      H2403   1.083       .  S
C2394      C2399   1.496       .  S
C2394      C2395   1.404       .  A
C2395      C2396   1.406       .  A
C2395      H2400   1.083       .  S
C2396      C2397   1.409       .  A
C2396      H2401   1.083       .  S
C2397      C2398   1.408       .  A
C2398      H2402   1.083       .  S
C2399      C2404   1.410       .  A
C2399      C2408   1.402       .  A
C2404      C2405   1.415       .  A
C2404      H2409   1.083       .  S
C2405      C2406   1.409       .  A
C2405      H2410   1.083       .  S
C2406      C2407   1.410       .  A
C2407      C2408   1.402       .  A
C2407      H2411   1.083       .  S
C2408      H2412   1.083       .  S
C2413      C2414   1.406       .  A
C2413      C2418   1.394       .  A
C2413      H2423   1.082       .  S
C2414      C2419   1.495   1_655  S
C2414      C2415   1.409       .  A
C2415      C2416   1.405       .  A
C2415      H2420   1.082       .  S
C2416      C2417   1.408       .  A
C2416      H2421   1.083       .  S
C2417      C2418   1.405       .  A
C2418      H2422   1.083       .  S
C2419      C2424   1.410       .  A
C2419      C2428   1.408       .  A
C2424      C2425   1.405       .  A
C2424      H2429   1.082       .  S
C2425      C2426   1.404       .  A
C2425      H2430   1.083       .  S
C2426      C2427   1.402       .  A
C2427      C2428   1.394       .  A
C2427      H2431   1.084       .  S
C2428      H2432   1.082       .  S
C2433      C2434   1.408       .  A
C2433      C2438   1.403       .  A
C2433      H2443   1.083       .  S
C2434      C2439   1.509   1_565  S
C2434      C2435   1.412       .  A
C2435      C2436   1.415       .  A
C2435      H2440   1.083       .  S
C2436      C2437   1.410       .  A
C2436      H2441   1.083       .  S
C2437      C2438   1.408       .  A
C2438      H2442   1.083       .  S
C2439      C2444   1.408       .  A
C2439      C2448   1.413       .  A
C2444      C2445   1.402       .  A
C2444      H2449   1.083       .  S
C2445      C2446   1.408       .  A
C2445      H2450   1.083       .  S
C2446      C2447   1.410       .  A
C2447      C2448   1.415       .  A
C2447      H2451   1.083       .  S
C2448      H2452   1.083       .  S
C2453      C2454   1.409       .  A
C2453      C2458   1.410       .  A
C2453      H2463   1.083       .  S
C2454      C2459   1.491       .  S
C2454      C2455   1.404       .  A
C2455      C2456   1.392       .  A
C2455      H2460   1.083       .  S
C2456      C2457   1.406       .  A
C2456      H2461   1.083       .  S
C2457      C2458   1.408       .  A
C2458      H2462   1.083       .  S
C2459      C2464   1.409       .  A
C2459      C2468   1.405       .  A
C2464      C2465   1.409       .  A
C2464      H2469   1.083       .  S
C2465      C2466   1.407       .  A
C2465      H2470   1.083       .  S
C2466      C2467   1.404       .  A
C2467      C2468   1.394       .  A
C2467      H2471   1.083       .  S
C2468      H2472   1.083       .  S
C2473      C2474   1.403       .  A
C2473      C2478   1.390       .  A
C2473      H2483   1.083       .  S
C2474      C2479   1.480   1_455  S
C2474      C2475   1.406       .  A
C2475      C2476   1.403       .  A
C2475      H2480   1.083   1_554  S
C2476      C2477   1.407       .  A
C2476      H2481   1.083       .  S
C2477      C2478   1.404       .  A
C2478      H2482   1.083       .  S
C2479      C2484   1.404   1_554  A
C2479      C2488   1.404       .  A
C2484      C2485   1.392       .  A
C2484      H2489   1.083       .  S
C2485      C2486   1.403   1_556  A
C2485      H2490   1.083       .  S
C2486      C2487   1.408       .  A
C2487      C2488   1.402       .  A
C2487      H2491   1.083       .  S
C2488      H2492   1.083       .  S
C2493      C2494   1.405       .  A
C2493      C2498   1.395       .  A
C2493      H2503   1.082       .  S
C2494      C2499   1.494       .  S
C2494      C2495   1.411       .  A
C2495      C2496   1.402       .  A
C2495      H2500   1.082       .  S
C2496      C2497   1.405       .  A
C2496      H2501   1.083       .  S
C2497      C2498   1.407       .  A
C2498      H2502   1.083       .  S
C2499      C2504   1.410       .  A
C2499      C2508   1.406       .  A
C2504      C2505   1.401       .  A
C2504      H2509   1.082       .  S
C2505      C2506   1.404       .  A
C2505      H2510   1.083       .  S
C2506      C2507   1.408       .  A
C2507      C2508   1.398       .  A
C2507      H2511   1.083       .  S
C2508      H2512   1.082       .  S
C2513      C2514   1.408       .  A
C2513      C2518   1.398       .  A
C2513      H2523   1.082       .  S
C2514      C2519   1.486       .  S
C2514      C2515   1.404       .  A
C2515      C2516   1.395       .  A
C2515      H2520   1.083       .  S
C2516      C2517   1.407       .  A
C2516      H2521   1.083       .  S
C2517      C2518   1.404       .  A
C2518      H2522   1.083       .  S
C2519      C2524   1.404       .  A
C2519      C2528   1.408       .  A
C2524      C2525   1.394       .  A
C2524      H2529   1.083       .  S
C2525      C2526   1.407       .  A
C2525      H2530   1.083       .  S
C2526      C2527   1.405       .  A
C2527      C2528   1.399       .  A
C2527      H2531   1.083       .  S
C2528      H2532   1.083       .  S
C2533      C2534   1.405       .  A
C2533      C2538   1.399       .  A
C2533      H2543   1.083   1_556  S
C2534      C2539   1.479   1_545  S
C2534      C2535   1.402       .  A
C2535      C2536   1.397       .  A
C2535      H2540   1.083       .  S
C2536      C2537   1.408       .  A
C2536      H2541   1.083       .  S
C2537      C2538   1.404       .  A
C2538      H2542   1.083       .  S
C2539      C2544   1.406       .  A
C2539      C2548   1.401   1_556  A
C2544      C2545   1.402       .  A
C2544      H2549   1.083       .  S
C2545      C2546   1.407   1_556  A
C2545      H2550   1.083       .  S
C2546      C2547   1.407       .  A
C2547      C2548   1.394       .  A
C2547      H2551   1.083       .  S
C2548      H2552   1.083   1_565  S
C2553      C2554   1.408       .  A
C2553      C2558   1.395       .  A
C2553      H2563   1.082       .  S
C2554      C2559   1.496       .  S
C2554      C2555   1.409       .  A
C2555      C2556   1.405       .  A
C2555      H2560   1.082       .  S
C2556      C2557   1.405       .  A
C2556      H2561   1.083       .  S
C2557      C2558   1.404       .  A
C2558      H2562   1.083       .  S
C2559      C2564   1.411       .  A
C2559      C2568   1.408       .  A
C2564      C2565   1.405       .  A
C2564      H2569   1.082       .  S
C2565      C2566   1.403       .  A
C2565      H2570   1.083       .  S
C2566      C2567   1.401       .  A
C2567      C2568   1.396       .  A
C2567      H2571   1.084       .  S
C2568      H2572   1.082       .  S
C2573      C2574   1.406       .  A
C2573      C2578   1.403       .  A
C2573      H2583   1.083       .  S
C2574      C2579   1.481       .  S
C2574      C2575   1.402       .  A
C2575      C2576   1.390       .  A
C2575      H2580   1.083       .  S
C2576      C2577   1.406       .  A
C2576      H2581   1.083       .  S
C2577      C2578   1.407       .  A
C2578      H2582   1.083       .  S
C2579      C2584   1.406       .  A
C2579      C2588   1.404       .  A
C2584      C2585   1.402       .  A
C2584      H2589   1.083       .  S
C2585      C2586   1.406       .  A
C2585      H2590   1.083       .  S
C2586      C2587   1.403       .  A
C2587      C2588   1.391       .  A
C2587      H2591   1.083       .  S
C2588      H2592   1.083       .  S
C2593      C2594   1.408       .  A
C2593      C2598   1.401       .  A
C2593      H2603   1.083       .  S
C2594      C2599   1.486   1_565  S
C2594      C2595   1.403       .  A
C2595      C2596   1.397       .  A
C2595      H2600   1.083   1_565  S
C2596      C2597   1.409       .  A
C2596      H2601   1.083       .  S
C2597      C2598   1.405       .  A
C2598      H2602   1.083       .  S
C2599      C2604   1.407       .  A
C2599      C2608   1.403       .  A
C2604      C2605   1.403       .  A
C2604      H2609   1.083       .  S
C2605      C2606   1.406       .  A
C2605      H2610   1.083       .  S
C2606      C2607   1.408       .  A
C2607      C2608   1.397       .  A
C2607      H2611   1.083       .  S
C2608      H2612   1.083       .  S
C2613      C2614   1.407       .  A
C2613      C2618   1.405       .  A
C2613      H2623   1.083       .  S
C2614      C2619   1.489       .  S
C2614      C2615   1.405       .  A
C2615      C2616   1.396       .  A
C2615      H2620   1.083       .  S
C2616      C2617   1.405       .  A
C2616      H2621   1.083       .  S
C2617      C2618   1.407       .  A
C2618      H2622   1.083       .  S
C2619      C2624   1.407       .  A
C2619      C2628   1.404       .  A
C2624      C2625   1.405       .  A
C2624      H2629   1.083       .  S
C2625      C2626   1.407       .  A
C2625      H2630   1.083       .  S
C2626      C2627   1.407       .  A
C2627      C2628   1.395       .  A
C2627      H2631   1.083       .  S
C2628      H2632   1.083       .  S
C2633      C2634   1.405       .  A
C2633      C2638   1.392       .  A
C2633      H2643   1.082       .  S
C2634      C2639   1.497       .  S
C2634      C2635   1.412       .  A
C2635      C2636   1.411       .  A
C2635      H2640   1.083       .  S
C2636      C2637   1.407       .  A
C2636      H2641   1.083       .  S
C2637      C2638   1.404       .  A
C2638      H2642   1.084       .  S
C2639      C2644   1.408       .  A
C2639      C2648   1.410       .  A
C2644      C2645   1.398       .  A
C2644      H2649   1.083       .  S
C2645      C2646   1.402       .  A
C2645      H2650   1.083       .  S
C2646      C2647   1.405       .  A
C2647      C2648   1.407       .  A
C2647      H2651   1.083       .  S
C2648      H2652   1.083       .  S
C2653      C2654   1.409       .  A
C2653      C2658   1.406       .  A
C2653      H2663   1.082       .  S
C2654      C2659   1.492       .  S
C2654      C2655   1.406       .  A
C2655      C2656   1.393       .  A
C2655      H2660   1.083       .  S
C2656      C2657   1.405       .  A
C2656      H2661   1.083       .  S
C2657      C2658   1.407       .  A
C2658      H2662   1.083       .  S
C2659      C2664   1.406       .  A
C2659      C2668   1.408       .  A
C2664      C2665   1.393       .  A
C2664      H2669   1.083       .  S
C2665      C2666   1.404       .  A
C2665      H2670   1.083       .  S
C2666      C2667   1.408       .  A
C2667      C2668   1.405       .  A
C2667      H2671   1.083       .  S
C2668      H2672   1.083       .  S
C2673      C2674   1.406       .  A
C2673      C2678   1.399       .  A
C2673      H2683   1.082       .  S
C2674      C2679   1.500       .  S
C2674      C2675   1.412       .  A
C2675      C2676   1.404       .  A
C2675      H2680   1.082       .  S
C2676      C2677   1.403       .  A
C2676      H2681   1.083       .  S
C2677      C2678   1.408       .  A
C2678      H2682   1.083       .  S
C2679      C2684   1.411       .  A
C2679      C2688   1.406       .  A
C2684      C2685   1.404       .  A
C2684      H2689   1.082       .  S
C2685      C2686   1.406       .  A
C2685      H2690   1.083       .  S
C2686      C2687   1.408       .  A
C2687      C2688   1.399       .  A
C2687      H2691   1.083       .  S
C2688      H2692   1.082       .  S
C2693      C2694   1.401       .  A
C2693      C2698   1.392       .  A
C2693      H2703   1.083       .  S
C2694      C2699   1.482       .  S
C2694      C2695   1.408       .  A
C2695      C2696   1.402       .  A
C2695      H2700   1.083       .  S
C2696      C2697   1.406       .  A
C2696      H2701   1.083       .  S
C2697      C2698   1.408       .  A
C2698      H2702   1.083       .  S
C2699      C2704   1.407       .  A
C2699      C2708   1.404       .  A
C2704      C2705   1.396       .  A
C2704      H2709   1.083       .  S
C2705      C2706   1.402       .  A
C2705      H2710   1.083       .  S
C2706      C2707   1.406       .  A
C2707      C2708   1.397       .  A
C2707      H2711   1.083       .  S
C2708      H2712   1.083       .  S
C2713      C2714   1.406       .  A
C2713      C2718   1.405       .  A
C2713      H2723   1.083       .  S
C2714      C2719   1.487   1_545  S
C2714      C2715   1.404       .  A
C2715      C2716   1.398       .  A
C2715      H2720   1.083       .  S
C2716      C2717   1.407       .  A
C2716      H2721   1.083       .  S
C2717      C2718   1.407       .  A
C2718      H2722   1.083       .  S
C2719      C2724   1.408       .  A
C2719      C2728   1.402       .  A
C2724      C2725   1.408       .  A
C2724      H2729   1.083       .  S
C2725      C2726   1.408       .  A
C2725      H2730   1.083       .  S
C2726      C2727   1.409       .  A
C2727      C2728   1.397       .  A
C2727      H2731   1.083       .  S
C2728      H2732   1.083       .  S
C2733      C2734   1.408       .  A
C2733      C2738   1.403       .  A
C2733      H2743   1.082       .  S
C2734      C2739   1.490       .  S
C2734      C2735   1.406       .  A
C2735      C2736   1.393       .  A
C2735      H2740   1.083       .  S
C2736      C2737   1.405       .  A
C2736      H2741   1.083       .  S
C2737      C2738   1.407       .  A
C2738      H2742   1.083       .  S
C2739      C2744   1.407       .  A
C2739      C2748   1.407       .  A
C2744      C2745   1.402       .  A
C2744      H2749   1.082       .  S
C2745      C2746   1.406       .  A
C2745      H2750   1.083       .  S
C2746      C2747   1.404       .  A
C2747      C2748   1.394       .  A
C2747      H2751   1.083       .  S
C2748      H2752   1.083       .  S
