geometry optimzed in LAMMPS
_audit_creation_date              2020-11-30 
_audit_creation_method            'lammps2cif' 
_symmetry_space_group_name_H-M    'P1' 
_symmetry_Int_Tables_number       1 
_symmetry_cell_setting            triclinic 
loop_ 
_symmetry_equiv_pos_as_xyz 
  x,y,z 
_cell_length_a                    33.98152934 
_cell_length_b                    33.966611270907606 
_cell_length_c                    28.241691084597953 
_cell_angle_alpha                 90.23457656473437 
_cell_angle_beta                  89.80267818782406 
_cell_angle_gamma                 120.2093574839717 
loop_ 
_atom_site_label 
_atom_site_type_symbol 
_atom_site_fract_x 
_atom_site_fract_y 
_atom_site_fract_z 
_atom_site_charge 
O1          O  0.56214414  0.72073361  0.34339690    -0.83600
C2          C  0.52561434  0.59219799  0.47491271     0.95800
O3          O  0.55295855  0.60805504  0.44046738    -0.72700
O4          O  0.58020369  0.64421890  0.35705454    -0.76300
Al5        Al  0.58237246  0.66739725  0.41867849     1.49000
C6          C  0.54915769  0.62373545  0.32744290     0.91000
O7          O  0.44486590  0.62219133  0.37946596    -0.82500
O8          O  0.49087898  0.71373314  0.46268645    -0.76100
Al9        Al  0.50514301  0.67056120  0.36479424     1.90100
O10         O  0.44476381  0.62093301  0.45700284    -0.75100
O11         O  0.55805825  0.71129806  0.50688251    -0.75000
O12         O  0.51125549  0.61560126  0.49656203    -0.80600
O13         O  0.60436577  0.69032009  0.48012364    -0.78800
O14         O  0.52986667  0.66792745  0.41969818    -1.15000
O15         O  0.61304033  0.72666686  0.39653119    -0.74200
C16         C  0.60099419  0.74301793  0.36318483     0.96500
C17         C  0.42416659  0.60669032  0.41828416     0.92900
Al18       Al  0.50383189  0.66566215  0.47576328     1.55600
O19         O  0.51324141  0.62551189  0.33125457    -0.78800
C20         C  0.59526273  0.71201630  0.50980038     0.97100
C21         C  0.48470044  0.72905050  0.42438524     0.92000
O22         O  0.49074822  0.71496389  0.38530549    -0.84100
O23         O  0.70831779  0.56881700  0.15912904    -0.83600
C24         C  0.58395056  0.53400443  0.02319244     0.95800
O25         O  0.59903576  0.56154760  0.05765997    -0.72700
O26         O  0.63362189  0.58900899  0.14221107    -0.76300
Al27       Al  0.65783800  0.59014183  0.08132465     1.49000
C28         C  0.61223110  0.55848052  0.17210030     0.91000
O29         O  0.60828824  0.45203663  0.12217565    -0.82500
O30         O  0.70294153  0.49716196  0.04188318    -0.76100
Al31       Al  0.65752208  0.51212030  0.13737494     1.90100
O32         O  0.61020029  0.45174327  0.04464842    -0.75100
O33         O  0.70276137  0.56425180  0.99527278    -0.75000
O34         O  0.60734401  0.51876682  0.00326696    -0.80600
O35         O  0.68238059  0.61156555  0.02025915    -0.78800
O36         O  0.65707982  0.53700254  0.08170979    -1.15000
O37         O  0.71662202  0.61978057  0.10490856    -0.74200
C38         C  0.73195717  0.60729600  0.13884252     0.96500
C39         C  0.59410665  0.43126197  0.08308323     0.92900
Al40       Al  0.65596378  0.51056738  0.02626958     1.55600
O41         O  0.61280921  0.52188511  0.16904629    -0.78800
C42         C  0.70408012  0.60169922  0.99139458     0.97100
C43         C  0.71654553  0.49037256  0.08097007     0.92000
O44         O  0.70116561  0.49609593  0.11927089    -0.84100
O45         O  0.82515982  0.77466665  0.68186287    -0.83600
C46         C  0.72233403  0.80225514  0.81583256     0.95800
O47         O  0.70895615  0.76434858  0.79549527    -0.72700
O48         O  0.70872204  0.76238527  0.70406938    -0.76300
Al49       Al  0.73751078  0.74505120  0.75055360     1.49000
C50         C  0.72374945  0.77999486  0.66432771     0.91000
O51         O  0.81557136  0.87907005  0.70975385    -0.82500
O52         O  0.86986993  0.82369461  0.79374685    -0.76100
Al53       Al  0.81839622  0.82468185  0.69729722     1.90100
O54         O  0.84162958  0.88639079  0.78224559    -0.75100
O55         O  0.79360096  0.77263086  0.84470940    -0.75000
O56         O  0.76411476  0.83079674  0.82131395    -0.80600
O57         O  0.75468653  0.71592363  0.79697019    -0.78800
O58         O  0.78991058  0.79818299  0.75129250    -1.15000
O59         O  0.75867658  0.71823441  0.70549423    -0.74200
C60         C  0.79738362  0.73265100  0.68667498     0.96500
C61         C  0.83415861  0.90351287  0.74613090     0.92900
Al62       Al  0.81512416  0.82575003  0.80597316     1.55600
O63         O  0.76602131  0.80281046  0.65753492    -0.78800
C64         C  0.77161227  0.73040745  0.83711898     0.97100
C65         C  0.89439172  0.84209357  0.75744780     0.92000
O66         O  0.87821996  0.85156741  0.72202983    -0.84100
O67         O  0.27694282  0.49691536  0.87610810    -0.83600
C68         C  0.39791390  0.46288817  0.97155158     0.95800
O69         O  0.37391628  0.47695801  0.99241016    -0.72700
O70         O  0.37232752  0.54469259  0.95174155    -0.76300
Al71       Al  0.32587415  0.48624158  0.96921477     1.49000
C72         C  0.38563117  0.56619216  0.91348496     0.91000
O73         O  0.37087004  0.47838024  0.82838782    -0.82500
O74         O  0.26533118  0.37752972  0.89070094    -0.76100
Al75       Al  0.32345879  0.48496149  0.85828109     1.90100
O76         O  0.34816098  0.40961371  0.85192942    -0.75100
O77         O  0.30029911  0.38591597  0.97509623    -0.75000
O78         O  0.38323386  0.43619265  0.93640950    -0.80600
O79         O  0.27832447  0.43243453  0.99886575    -0.78800
O80         O  0.32458230  0.46020076  0.91366558    -1.15000
O81         O  0.27975650  0.50100354  0.95350038    -0.74200
C82         C  0.26362310  0.50489407  0.91462228     0.96500
C83         C  0.37096399  0.44159249  0.82379890     0.92900
Al84       Al  0.32426928  0.40730648  0.91351865     1.55600
O85         O  0.36973595  0.54616436  0.87437661    -0.78800
C86         C  0.27794582  0.39550687  0.00347857     0.97100
C87         C  0.25083479  0.38973092  0.85582632     0.92000
O88         O  0.27534900  0.42755088  0.83474920    -0.84100
O89         O  0.49279072  0.28433258  0.61515568    -0.83600
C90         C  0.45618611  0.40507281  0.52286930     0.95800
O91         O  0.47144844  0.38224104  0.50176678    -0.72700
O92         O  0.53895977  0.38010170  0.54249624    -0.76300
Al93       Al  0.48078013  0.33382444  0.52370897     1.49000
C94         C  0.55973986  0.39394647  0.58112934     0.91000
O95         O  0.47059447  0.37450094  0.66684798    -0.82500
O96         O  0.37133955  0.27092483  0.60276064    -0.76100
Al97       Al  0.47884193  0.32899383  0.63480345     1.90100
O98         O  0.40300862  0.35388599  0.64126904    -0.75100
O99         O  0.37950440  0.30578620  0.51879502    -0.75000
O100        O  0.42898170  0.38904620  0.55739199    -0.80600
O101        O  0.42757639  0.28681916  0.49262202    -0.78800
O102        O  0.45410774  0.33091919  0.57953618    -1.15000
O103        O  0.49548647  0.28747775  0.53778335    -0.74200
C104        C  0.50004432  0.27118116  0.57616120     0.96500
C105        C  0.43434915  0.37570463  0.67030727     0.92900
Al106      Al  0.40091487  0.32996115  0.57999823     1.55600
O107        O  0.53940316  0.37734917  0.61990303    -0.78800
C108        C  0.38977178  0.28475823  0.48940376     0.97100
C109        C  0.38335768  0.25540552  0.63685456     0.92000
O110        O  0.42188330  0.27873598  0.65704957    -0.84100
O111        O  0.14217350  0.11570504  0.21799142    -0.83600
C112        C  0.18961726  0.27149669  0.31163110     0.95800
O113        O  0.16288975  0.22957524  0.31914017    -0.72700
O114        O  0.10743071  0.15284004  0.27969461    -0.76300
Al115      Al  0.16751509  0.17811627  0.30301713     1.49000
C116        C  0.09032177  0.16063713  0.24395343     0.91000
O117        O  0.18994163  0.22812743  0.15459727    -0.82500
O118        O  0.27622074  0.23523466  0.20526443    -0.76100
Al119      Al  0.16901342  0.17588305  0.19417370     1.90100
O120        O  0.23275652  0.28561269  0.19973187    -0.75100
O121        O  0.27718820  0.24160194  0.29626147    -0.75000
O122        O  0.22735133  0.28568294  0.29074805    -0.80600
O123        O  0.22015983  0.19793193  0.34153942    -0.78800
O124        O  0.19536579  0.20403406  0.24844761    -1.15000
O125        O  0.16803515  0.12222956  0.29026615    -0.74200
C126        C  0.14939475  0.09811191  0.25369588     0.96500
C127        C  0.21366072  0.27039797  0.16065150     0.92900
Al128      Al  0.24837918  0.25701925  0.24807106     1.55600
O129        O  0.11424735  0.17820990  0.20702049    -0.78800
C130        C  0.26233686  0.22161391  0.33498500     0.97100
C131        C  0.26186480  0.19715619  0.18492856     0.92000
O132        O  0.21982496  0.16998817  0.17838505    -0.84100
O133        O  0.43170024  0.16487354  0.15333663    -0.83600
C134        C  0.46191437  0.06199193  0.02176123     0.95800
O135        O  0.42460109  0.04783350  0.04346463    -0.72700
O136        O  0.42037959  0.04927516  0.13444928    -0.76300
Al137      Al  0.40354115  0.07659909  0.08573307     1.49000
C138        C  0.43892226  0.06512389  0.17361719     0.91000
O139        O  0.53747258  0.15721729  0.12548720    -0.82500
O140        O  0.48197913  0.21039038  0.04062048    -0.76100
Al141      Al  0.48259172  0.15926258  0.13801318     1.90100
O142        O  0.54405276  0.18122839  0.05219928    -0.75100
O143        O  0.43001995  0.13379889  0.99088817    -0.75000
O144        O  0.48839273  0.10382093  0.01375889    -0.80600
O145        O  0.37380547  0.09051674  0.03726540    -0.78800
O146        O  0.45611132  0.12990326  0.08424225    -1.15000
O147        O  0.37554485  0.09859259  0.12833446    -0.74200
C148        C  0.38970281  0.13714089  0.14758028     0.96500
C149        C  0.56130954  0.17409947  0.08835816     0.92900
Al150      Al  0.48334052  0.15497320  0.02911383     1.55600
O151        O  0.46207126  0.10758471  0.17909944    -0.78800
C152        C  0.38791771  0.10962480  0.99797718     0.97100
C153        C  0.50036839  0.23543273  0.07661052     0.92000
O154        O  0.50871935  0.21919684  0.11278157    -0.84100
O155        O  0.15968033  0.94013353  0.82516483    -0.83600
C156        C  0.25945926  0.07112356  0.69034590     0.95800
O157        O  0.27377781  0.04830071  0.71196400    -0.72700
O158        O  0.27404049  0.04432338  0.80319876    -0.76300
Al159      Al  0.24584265  0.99938734  0.75520518     1.49000
C160        C  0.25916174  0.04784460  0.84273836     0.91000
O161        O  0.16459598  0.05280205  0.79764196    -0.82500
O162        O  0.11234278  0.94317005  0.71307863    -0.76100
Al163      Al  0.16432208  0.99631588  0.80981628     1.90100
O164        O  0.14007595  0.03387452  0.72471397    -0.75100
O165        O  0.18787542  0.96873266  0.66157185    -0.75000
O166        O  0.21746169  0.05653317  0.68481361    -0.80600
O167        O  0.23020369  0.95422310  0.70706233    -0.78800
O168        O  0.19275933  0.99881821  0.75530367    -1.15000
O169        O  0.22534159  0.95069136  0.79828554    -0.74200
C170        C  0.18734646  0.92612533  0.81818149     0.96500
C171        C  0.14639805  0.05832948  0.76085037     0.92900
Al172      Al  0.16680396  0.00023394  0.70084242     1.55600
O173        O  0.21690455  0.02897880  0.84928856    -0.78800
C174        C  0.21151078  0.95029161  0.66773853     0.97100
C175        C  0.08796550  0.93642436  0.74959319     0.92000
O176        O  0.10439363  0.96119076  0.78578605    -0.84100
O177        O  0.37358780  0.90508065  0.49842190    -0.83600
C178        C  0.25154473  0.86890515  0.35964584     0.95800
O179        O  0.26505903  0.89500790  0.39525785    -0.72700
O180        O  0.29813975  0.92144635  0.48050738    -0.76300
Al181      Al  0.32346253  0.92462292  0.41954018     1.49000
C182        C  0.27696984  0.89008096  0.50975740     0.91000
O183        O  0.27900951  0.78685833  0.45904831    -0.82500
O184        O  0.37132980  0.83289796  0.38027828    -0.76100
Al185      Al  0.32558178  0.84759351  0.47518615     1.90100
O186        O  0.27842565  0.78795039  0.38150641    -0.75100
O187        O  0.37185920  0.90136389  0.33459782    -0.75000
O188        O  0.27607300  0.85493411  0.33986009    -0.80600
O189        O  0.34863334  0.94686082  0.35846515    -0.78800
O190        O  0.32455578  0.87239546  0.41964357    -1.15000
O191        O  0.38170364  0.95558806  0.44378726    -0.74200
C192        C  0.39666110  0.94382128  0.47857389     0.96500
C193        C  0.26382841  0.76678217  0.41985142     0.92900
Al194      Al  0.32452851  0.84678274  0.36405913     1.55600
O195        O  0.27843230  0.85401628  0.50576727    -0.78800
C196        C  0.37180012  0.93816320  0.33024067     0.97100
C197        C  0.38623032  0.82767799  0.41935282     0.92000
O198        O  0.37185600  0.83481756  0.45766651    -0.84100
O199        O  0.47511303  0.78037445  0.88770801    -0.83600
C200        C  0.52320358  0.93578177  0.98312869     0.95800
O201        O  0.49633243  0.89385729  0.99019685    -0.72700
O202        O  0.44037004  0.81800728  0.94910631    -0.76300
Al203      Al  0.50045743  0.84249445  0.97326299     1.49000
C204        C  0.42372384  0.82550626  0.91265917     0.91000
O205        O  0.52466071  0.89346345  0.82446162    -0.82500
O206        O  0.60948539  0.89991120  0.87612004    -0.76100
Al207      Al  0.50276336  0.84083919  0.86417958     1.90100
O208        O  0.56612858  0.95059659  0.87050373    -0.75100
O209        O  0.61012323  0.90627844  0.96712332    -0.75000
O210        O  0.56052899  0.95003131  0.96147226    -0.80600
O211        O  0.55327494  0.86185160  0.01226511    -0.78800
O212        O  0.52860994  0.86869980  0.91884748    -1.15000
O213        O  0.50043572  0.78655541  0.96018117    -0.74200
C214        C  0.48172795  0.76255889  0.92361261     0.96500
C215        C  0.54800160  0.93575529  0.83094909     0.92900
Al216      Al  0.58155809  0.92165958  0.91880106     1.55600
O217        O  0.44827946  0.84345600  0.87621327    -0.78800
C218        C  0.59549952  0.88633746  0.00593165     0.97100
C219        C  0.59514528  0.86163789  0.85620575     0.92000
O220        O  0.55322873  0.83452734  0.84926378    -0.84100
O221        O  0.87870924  0.03821041  0.21824271    -0.83600
C222        C  0.72409623  0.92819678  0.31378281     0.95800
O223        O  0.76610354  0.94335312  0.31994101    -0.72700
O224        O  0.84284052  0.96502635  0.27933825    -0.76300
Al225      Al  0.81682147  0.99930841  0.30366270     1.49000
C226        C  0.83609357  0.94097214  0.24274513     0.91000
O227        O  0.76588651  0.97037007  0.15536636    -0.82500
O228        O  0.75850346  0.05001209  0.20771756    -0.76100
Al229      Al  0.81848394  0.00318017  0.19463596     1.90100
O230        O  0.70883454  0.95618022  0.20089433    -0.75100
O231        O  0.75250704  0.04431119  0.29855781    -0.75000
O232        O  0.70945976  0.95065010  0.29194902    -0.80600
O233        O  0.79626751  0.03109308  0.34327964    -0.78800
O234        O  0.79047197  0.00083824  0.24936256    -1.15000
O235        O  0.87175239  0.05621588  0.29122854    -0.74200
C236        C  0.89577759  0.06284318  0.25441595     0.96500
C237        C  0.72366083  0.95174511  0.16173441     0.92900
Al238      Al  0.73737211  0.00031042  0.24969979     1.55600
O239        O  0.81775720  0.94691956  0.20647142    -0.78800
C240        C  0.77174863  0.04861907  0.33753978     0.97100
C241        C  0.79614768  0.07377786  0.18680511     0.92000
O242        O  0.82315941  0.05910289  0.17928048    -0.84100
O243        O  0.70401739  0.21358035  0.62050063    -0.83600
C244        C  0.58337177  0.05821043  0.52698646     0.95800
O245        O  0.60789239  0.09590502  0.50551907    -0.72700
O246        O  0.61354840  0.16770258  0.54567314    -0.76300
Al247      Al  0.65788847  0.15301913  0.52789567     1.49000
C248        C  0.59764836  0.17311922  0.58377050     0.91000
O249        O  0.61287857  0.10019385  0.67037484    -0.82500
O250        O  0.71602758  0.10340266  0.60585039    -0.76100
Al251      Al  0.65898647  0.15420984  0.63881141     1.90100
O252        O  0.63405847  0.05362583  0.64522731    -0.75100
O253        O  0.67971004  0.07573159  0.52174285    -0.75000
O254        O  0.59811067  0.04584830  0.56152026    -0.80600
O255        O  0.70383567  0.14448168  0.49785327    -0.78800
O256        O  0.65803121  0.12808221  0.58348006    -1.15000
O257        O  0.70604248  0.21352112  0.54309388    -0.74200
C258        C  0.71978329  0.23436438  0.58213198     0.96500
C259        C  0.61245766  0.06318571  0.67452644     0.92900
Al260      Al  0.65705263  0.07489002  0.58354369     1.55600
O261        O  0.61103826  0.16656011  0.62319446    -0.78800
C262        C  0.70300316  0.10731474  0.49343214     0.97100
C263        C  0.73147066  0.13101444  0.64024393     0.92000
O264        O  0.70843940  0.14654868  0.66066889    -0.84100
O265        O  0.15691754  0.44117601  0.34442087    -0.83600
C266        C  0.05602952  0.47162708  0.47824560     0.95800
O267        O  0.04212092  0.43322602  0.45867555    -0.72700
O268        O  0.04183386  0.42875041  0.36735355    -0.76300
Al269      Al  0.07053469  0.41248023  0.41479413     1.49000
C270        C  0.05651070  0.44789292  0.32817187     0.91000
O271        O  0.15010074  0.54705991  0.37389701    -0.82500
O272        O  0.20339905  0.49123961  0.45833797    -0.76100
Al273      Al  0.15157573  0.49193783  0.36096797     1.90100
O274        O  0.17587854  0.55384334  0.44629667    -0.75100
O275        O  0.12641847  0.44052724  0.50924794    -0.75000
O276        O  0.09790932  0.49934287  0.48434780    -0.80600
O277        O  0.08689470  0.38345913  0.46225228    -0.78800
O278        O  0.12323345  0.46554083  0.41512366    -1.15000
O279        O  0.09168923  0.38472564  0.37081717    -0.74200
C280        C  0.12958587  0.39914014  0.35014805     0.96500
C281        C  0.16840724  0.57117160  0.41049307     0.92900
Al282      Al  0.14856899  0.49338961  0.46986634     1.55600
O283        O  0.09879445  0.47158185  0.32150716    -0.78800
C284        C  0.10393483  0.39823104  0.50226478     0.97100
C285        C  0.22825567  0.50983059  0.42223483     0.92000
O286        O  0.21170355  0.51748007  0.38575628    -0.84100
O287        O  0.88637982  0.39153533  0.01461281    -0.83600
C288        C  0.85661270  0.26105285  0.14843769     0.95800
O289        O  0.89360508  0.28418859  0.12627545    -0.72700
O290        O  0.90055836  0.29055156  0.03550075    -0.76300
Al291      Al  0.91483097  0.33405807  0.08478364     1.49000
C292        C  0.88123173  0.28585885  0.99649034     0.91000
O293        O  0.78058585  0.27713822  0.04247189    -0.82500
O294        O  0.83265291  0.38683747  0.12664286    -0.76100
Al295      Al  0.83549125  0.33458164  0.03026483     1.90100
O296        O  0.77334644  0.29481044  0.11558265    -0.75100
O297        O  0.88584761  0.36538068  0.17859632    -0.75000
O298        O  0.82977879  0.27592113  0.15620312    -0.80600
O299        O  0.94289947  0.37753732  0.13403970    -0.78800
O300        O  0.86159365  0.33330078  0.08488252    -1.15000
O301        O  0.94277992  0.38411411  0.04315654    -0.74200
C302        C  0.92839722  0.40697190  0.02167157     0.96500
C303        C  0.75636766  0.27029409  0.07927133     0.92900
Al304      Al  0.83332753  0.33118840  0.13944696     1.55600
O305        O  0.85667488  0.30330909  0.99068958    -0.78800
C306        C  0.92805285  0.38306407  0.17266473     0.97100
C307        C  0.81412389  0.39185411  0.08996220     0.92000
O308        O  0.80828710  0.36764234  0.05383292    -0.84100
O309        O  0.04008402  0.23928678  0.82716415    -0.83600
C310        C  0.91747788  0.20109168  0.68991569     0.95800
O311        O  0.93197671  0.22803050  0.72483479    -0.72700
O312        O  0.96649409  0.25587226  0.80930926    -0.76300
Al313      Al  0.99064838  0.25785027  0.74778676     1.49000
C314        C  0.94452395  0.22421561  0.83806847     0.91000
O315        O  0.94669208  0.12041174  0.78892115    -0.82500
O316        O  0.03693437  0.16479238  0.70977011    -0.76100
Al317      Al  0.99255158  0.18148621  0.80419186     1.90100
O318        O  0.94401998  0.12015690  0.71149764    -0.75100
O319        O  0.03740253  0.23302576  0.66243779    -0.75000
O320        O  0.94160011  0.18698620  0.66938851    -0.80600
O321        O  0.01440498  0.27874912  0.68618380    -0.78800
O322        O  0.99122790  0.20543077  0.74834722    -1.15000
O323        O  0.04953983  0.28879113  0.77081098    -0.74200
C324        C  0.06404767  0.27727642  0.80622531     0.96500
C325        C  0.93057899  0.09960141  0.75031092     0.92900
Al326      Al  0.99024183  0.17883480  0.69315257     1.55600
O327        O  0.94491154  0.18763745  0.83355987    -0.78800
C328        C  0.03716449  0.26974318  0.65775659     0.97100
C329        C  0.05264291  0.16094234  0.74903788     0.92000
O330        O  0.03925588  0.16952846  0.78716677    -0.84100
O331        O  0.21165246  0.70254487  0.88094943    -0.83600
C332        C  0.05657756  0.59289629  0.97609767     0.95800
O333        O  0.09855102  0.60754505  0.98182770    -0.72700
O334        O  0.17576436  0.63046607  0.94191828    -0.76300
Al335      Al  0.14916304  0.66413868  0.96587652     1.49000
C336        C  0.16864178  0.60563692  0.90591184     0.91000
O337        O  0.09851428  0.63543218  0.81740223    -0.82500
O338        O  0.09019617  0.71294099  0.86765550    -0.76100
Al339      Al  0.15133684  0.66777083  0.85694870     1.90100
O340        O  0.04149891  0.61902831  0.86404217    -0.75100
O341        O  0.08598675  0.71042594  0.95895799    -0.75000
O342        O  0.04239292  0.61629446  0.95538344    -0.80600
O343        O  0.12785397  0.69575601  0.00506859    -0.78800
O344        O  0.12312302  0.66546486  0.91143849    -1.15000
O345        O  0.20391161  0.72124269  0.95343690    -0.74200
C346        C  0.22846029  0.72732186  0.91713877     0.96500
C347        C  0.05622161  0.61603607  0.82419523     0.92900
Al348      Al  0.07000200  0.66471201  0.91147897     1.55600
O349        O  0.15025148  0.61110805  0.86927413    -0.78800
C350        C  0.10433446  0.71432364  0.99848549     0.97100
C351        C  0.12844539  0.73779482  0.84828566     0.92000
O352        O  0.15639074  0.72406272  0.84176924    -0.84100
O353        O  0.03959038  0.88118648  0.28277014    -0.83600
C354        C  0.91875626  0.72438691  0.18840153     0.95800
O355        O  0.94199569  0.76295194  0.16818982    -0.72700
O356        O  0.94654970  0.83451067  0.20859526    -0.76300
Al357      Al  0.99148094  0.82033999  0.19022632     1.49000
C358        C  0.93211956  0.84103780  0.24715848     0.91000
O359        O  0.94782193  0.76839270  0.33271220    -0.82500
O360        O  0.05208859  0.77257479  0.26929783    -0.76100
Al361      Al  0.99418087  0.82230000  0.30135377     1.90100
O362        O  0.96895267  0.72165450  0.30769126    -0.75100
O363        O  0.01707808  0.74506242  0.18478636    -0.75000
O364        O  0.93406300  0.71255639  0.22290584    -0.80600
O365        O  0.03734978  0.81235069  0.15871080    -0.78800
O366        O  0.99287401  0.79586251  0.24587383    -1.15000
O367        O  0.03928429  0.88107753  0.20524468    -0.74200
C368        C  0.05429571  0.90183355  0.24418432     0.96500
C369        C  0.94719504  0.73126470  0.33685558     0.92900
Al370      Al  0.99303580  0.74317189  0.24613892     1.55600
O371        O  0.94687546  0.83532082  0.28605129    -0.78800
C372        C  0.03826058  0.77596419  0.15509416     0.97100
C373        C  0.06696652  0.80000650  0.30384793     0.92000
O374        O  0.04323902  0.81471369  0.32401797    -0.84100
O375        O  0.77248234  0.48554988  0.61148890    -0.83600
C376        C  0.92803254  0.53085446  0.51763781     0.95800
O377        O  0.88611990  0.50310970  0.51174358    -0.72700
O378        O  0.80859822  0.44800859  0.55092242    -0.76300
Al379      Al  0.83521776  0.50858558  0.52675247     1.49000
C380        C  0.81540191  0.43102110  0.58751402     0.91000
O381        O  0.88547469  0.53169104  0.67505373    -0.82500
O382        O  0.89314516  0.61825863  0.62475714    -0.76100
Al383      Al  0.83265153  0.51120648  0.63574957     1.90100
O384        O  0.94245664  0.57387299  0.62895336    -0.75100
O385        O  0.89762306  0.61882737  0.53331823    -0.75000
O386        O  0.94199716  0.56904518  0.53757659    -0.80600
O387        O  0.85669730  0.56144509  0.48711460    -0.78800
O388        O  0.86087971  0.53693224  0.58125291    -1.15000
O389        O  0.78002203  0.51023539  0.53842544    -0.74200
C390        C  0.75554421  0.49246325  0.57494116     0.96500
C391        C  0.92775122  0.55502452  0.66828887     0.92900
Al392      Al  0.91381029  0.58998942  0.58117200     1.55600
O393        O  0.83352794  0.45567388  0.62382873    -0.78800
C394        C  0.87982374  0.60383314  0.49360749     0.97100
C395        C  0.85539154  0.60426561  0.64547591     0.92000
O396        O  0.82778316  0.56234697  0.65148736    -0.84100
C397        C  0.92240910  0.71392272  0.42265597    -0.15100
C398        C  0.92256894  0.69871654  0.37625971     0.07000
C399        C  0.90375598  0.65166807  0.36863925    -0.15100
C400        C  0.88688123  0.62076427  0.40643111    -0.15100
C401        C  0.88940191  0.63603170  0.45329959     0.07000
C402        C  0.90657867  0.68300277  0.46084733    -0.15100
H403        H  0.93704195  0.74997089  0.42976823     0.11000
H404        H  0.90341068  0.63884809  0.33336326     0.11000
H405        H  0.87429835  0.58505405  0.39916598     0.11000
H406        H  0.90919765  0.69602817  0.49646398     0.11000
C407        C  0.09825534  0.72553581  0.08551952    -0.15100
C408        C  0.09501154  0.73736752  0.03860974     0.07000
C409        C  0.07743826  0.76660324  0.03094055    -0.15100
C410        C  0.06191809  0.78207602  0.06913941    -0.15100
C411        C  0.06250626  0.76763619  0.11562982     0.07000
C412        C  0.08168384  0.73992958  0.12334376    -0.15100
H413        H  0.11116959  0.70282562  0.09282553     0.11000
H414        H  0.07428193  0.77625726  0.99526159     0.11000
H415        H  0.04694816  0.80303719  0.06201258     0.11000
H416        H  0.08255963  0.72815903  0.15871331     0.11000
C417        C  0.03884331  0.60066069  0.73702074    -0.15100
C418        C  0.02357301  0.59283843  0.78430735     0.07000
C419        C  0.97627791  0.56768445  0.79259546    -0.15100
C420        C  0.94517783  0.55283809  0.75480841    -0.15100
C421        C  0.96045029  0.56318148  0.70764070     0.07000
C422        C  0.00774887  0.58627638  0.69926181    -0.15100
H423        H  0.07492056  0.62013860  0.72917472     0.11000
H424        H  0.96319808  0.56105465  0.82846950     0.11000
H425        H  0.90909102  0.53530839  0.76273464     0.11000
H426        H  0.02084089  0.59488539  0.66348471     0.11000
C427        C  0.91209884  0.23735301  0.96343939    -0.15100
C428        C  0.89015351  0.26269458  0.95621627     0.07000
C429        C  0.88167877  0.27032360  0.90934886    -0.15100
C430        C  0.89737779  0.25572803  0.87086982    -0.15100
C431        C  0.92077183  0.23196390  0.87817455     0.07000
C432        C  0.92673622  0.22167639  0.92480659    -0.15100
H433        H  0.91941682  0.23104733  0.99899002     0.11000
H434        H  0.86518572  0.28990876  0.90235208     0.11000
H435        H  0.89254672  0.26431141  0.83528152     0.11000
H436        H  0.94528183  0.20403300  0.93144052     0.11000
C437        C  0.00754857  0.47285443  0.02002981    -0.15100
C438        C  0.96143903  0.45386361  0.00777797     0.07000
C439        C  0.94658467  0.48151055  0.98694610    -0.15100
C440        C  0.97731033  0.52732240  0.97840845    -0.15100
C441        C  0.02342154  0.54626190  0.99054507     0.07000
C442        C  0.03826274  0.51864541  0.01148608    -0.15100
H443        H  0.01988635  0.45250041  0.03678099     0.11000
H444        H  0.91114515  0.46790895  0.97770780     0.11000
H445        H  0.96502935  0.54768319  0.96156530     0.11000
H446        H  0.07371241  0.53221598  0.02067588     0.11000
C447        C  0.94602164  0.47283644  0.48706987    -0.15100
C448        C  0.96117341  0.51695121  0.50450656     0.07000
C449        C  0.00754661  0.54543249  0.51486325    -0.15100
C450        C  0.03815309  0.53000627  0.50808155    -0.15100
C451        C  0.02295718  0.48580215  0.49082417     0.07000
C452        C  0.97662510  0.45741092  0.48029237    -0.15100
H453        H  0.91035837  0.44988581  0.47938258     0.11000
H454        H  0.02012819  0.57940425  0.52893810     0.11000
H455        H  0.07381468  0.55295455  0.51578810     0.11000
H456        H  0.96404363  0.42343627  0.46623517     0.11000
C457        C  0.07956317  0.31947625  0.53460857    -0.15100
C458        C  0.09433629  0.36594170  0.54233258     0.07000
C459        C  0.09474006  0.38056977  0.58904817    -0.15100
C460        C  0.07827310  0.34940268  0.62652532    -0.15100
C461        C  0.06189134  0.30274270  0.61877598     0.07000
C462        C  0.06406847  0.28828451  0.57256455    -0.15100
H463        H  0.07864623  0.30702729  0.49903039     0.11000
H464        H  0.10536029  0.41586209  0.59636419     0.11000
H465        H  0.07692567  0.36164839  0.66163757     0.11000
H466        H  0.05124971  0.25252820  0.56534755     0.11000
C467        C  0.03893833  0.44864013  0.24157762    -0.15100
C468        C  0.02374544  0.43932557  0.28881382     0.07000
C469        C  0.97644398  0.41632204  0.29728541    -0.15100
C470        C  0.94527615  0.40086624  0.25954943    -0.15100
C471        C  0.96053499  0.40747677  0.21228174     0.07000
C472        C  0.00779192  0.43266858  0.20386183    -0.15100
H473        H  0.07501191  0.46604723  0.23360616     0.11000
H474        H  0.96343330  0.40850216  0.33315053     0.11000
H475        H  0.90920895  0.38139973  0.26745334     0.11000
H476        H  0.02081670  0.43842372  0.16797285     0.11000
C477        C  0.84892576  0.14689033  0.64441983    -0.15100
C478        C  0.87067512  0.18441546  0.67490186     0.07000
C479        C  0.84591433  0.20311970  0.69527469    -0.15100
C480        C  0.80002777  0.18456152  0.68541340    -0.15100
C481        C  0.77825469  0.14715815  0.65486953     0.07000
C482        C  0.80293845  0.12834298  0.63444938    -0.15100
H483        H  0.86716512  0.13142908  0.62899792     0.11000
H484        H  0.86188220  0.23194330  0.71923909     0.11000
H485        H  0.78189331  0.20006565  0.70099095     0.11000
H486        H  0.78685584  0.09955415  0.61044999     0.11000
C487        C  0.76763025  0.31016725  0.54192556    -0.15100
C488        C  0.75213121  0.28453888  0.58373088     0.07000
C489        C  0.76329202  0.30806593  0.62741548    -0.15100
C490        C  0.78656583  0.35586992  0.62909068    -0.15100
C491        C  0.79909796  0.38130024  0.58712345     0.07000
C492        C  0.79074000  0.35790415  0.54361843    -0.15100
H493        H  0.75994700  0.29337086  0.50774773     0.11000
H494        H  0.75198816  0.28951638  0.66042975     0.11000
H495        H  0.79233297  0.37277635  0.66307271     0.11000
H496        H  0.80043925  0.37655747  0.51057392     0.11000
C497        C  0.78503221  0.14061111  0.19105849    -0.15100
C498        C  0.81038902  0.12099196  0.17464976     0.07000
C499        C  0.85224515  0.14840228  0.15197380    -0.15100
C500        C  0.86832835  0.19458743  0.14549982    -0.15100
C501        C  0.84281866  0.21415600  0.16159048     0.07000
C502        C  0.80111484  0.18681544  0.18457078    -0.15100
H503        H  0.75306065  0.12044381  0.20957846     0.11000
H504        H  0.87280853  0.13429318  0.13962883     0.11000
H505        H  0.90030284  0.21471695  0.12697133     0.11000
H506        H  0.78053776  0.20092803  0.19685371     0.11000
C507        C  0.74419328  0.06902458  0.46202744    -0.15100
C508        C  0.72772868  0.09908329  0.45466148     0.07000
C509        C  0.73070318  0.11667038  0.40896913    -0.15100
C510        C  0.74704444  0.10204911  0.37087324    -0.15100
C511        C  0.76202936  0.07067263  0.37806920     0.07000
C512        C  0.76169782  0.05550632  0.42438715    -0.15100
H513        H  0.74226878  0.05486532  0.49684343     0.11000
H514        H  0.71789903  0.13956262  0.40220998     0.11000
H515        H  0.74661636  0.11412499  0.33554680     0.11000
H516        H  0.77238565  0.03090740  0.43109446     0.11000
C517        C  0.86351347  0.89542078  0.28664358    -0.15100
C518        C  0.85280751  0.90803033  0.24315689     0.07000
C519        C  0.86332995  0.89319190  0.20107471    -0.15100
C520        C  0.88677410  0.86897661  0.20247845    -0.15100
C521        C  0.90003627  0.85889301  0.24601780     0.07000
C522        C  0.88676697  0.87117094  0.28806516    -0.15100
H523        H  0.85552155  0.90596439  0.31982306     0.11000
H524        H  0.85573524  0.90245998  0.16709203     0.11000
H525        H  0.89641358  0.86005895  0.16929583     0.11000
H526        H  0.89623282  0.86396339  0.32213910     0.11000
C527        C  0.67557573  0.91902674  0.03699911    -0.15100
C528        C  0.62825754  0.89498393  0.04532726     0.07000
C529        C  0.61299185  0.88489013  0.09250921    -0.15100
C530        C  0.64404699  0.90115414  0.13034244    -0.15100
C531        C  0.69126107  0.92739887  0.12203927     0.07000
C532        C  0.70662900  0.93475024  0.07480046    -0.15100
H533        H  0.68865233  0.92746044  0.00120021     0.11000
H534        H  0.57688413  0.86664481  0.10036555     0.11000
H535        H  0.63096084  0.89473932  0.16621389     0.11000
H536        H  0.74266707  0.95495180  0.06697779     0.11000
C537        C  0.57477595  0.01501062  0.79880271    -0.15100
C538        C  0.55706833  0.96801340  0.79091853     0.07000
C539        C  0.55306977  0.95270486  0.74387878    -0.15100
C540        C  0.56901680  0.98363274  0.70610940    -0.15100
C541        C  0.58836387  0.03070638  0.71402520     0.07000
C542        C  0.58972139  0.04595840  0.76069487    -0.15100
H543        H  0.57848084  0.02802475  0.83456949     0.11000
H544        H  0.53998771  0.91694735  0.73636854     0.11000
H545        H  0.56760563  0.97083104  0.67058295     0.11000
H546        H  0.60489982  0.08203863  0.76798254     0.11000
C547        C  0.30312613  0.77548744  0.95845593    -0.15100
C548        C  0.27795183  0.76101764  0.91642625     0.07000
C549        C  0.30142319  0.77419370  0.87280923    -0.15100
C550        C  0.34910146  0.79840690  0.87124443    -0.15100
C551        C  0.37427694  0.80958398  0.91328599     0.07000
C552        C  0.35078941  0.79935962  0.95689365    -0.15100
H553        H  0.28611494  0.76584595  0.99247781     0.11000
H554        H  0.28287174  0.76382568  0.83970415     0.11000
H555        H  0.36611976  0.80570706  0.83722387     0.11000
H556        H  0.36931716  0.80786950  0.99001292     0.11000
C557        C  0.18361745  0.81430865  0.31370176    -0.15100
C558        C  0.20542984  0.85303143  0.34262450     0.07000
C559        C  0.18124508  0.87377304  0.35937362    -0.15100
C560        C  0.13568294  0.85571186  0.34782222    -0.15100
C561        C  0.11370568  0.81670828  0.31930674     0.07000
C562        C  0.13801020  0.79624709  0.30210211    -0.15100
H563        H  0.20143253  0.79736743  0.30101392     0.11000
H564        H  0.19740358  0.90372042  0.38183956     0.11000
H565        H  0.11789791  0.87263754  0.36065357     0.11000
H566        H  0.12179484  0.76627733  0.27967879     0.11000
C567        C  0.51563544  0.04339309  0.48020492    -0.15100
C568        C  0.53588073  0.02879986  0.51356368     0.07000
C569        C  0.50926477  0.98754929  0.53774021    -0.15100
C570        C  0.46321487  0.96084481  0.52809276    -0.15100
C571        C  0.44314628  0.97490321  0.49401065     0.07000
C572        C  0.46950281  0.01661967  0.47050915    -0.15100
H573        H  0.53529125  0.07550018  0.46185397     0.11000
H574        H  0.52393723  0.97582222  0.56427044     0.11000
H575        H  0.44368308  0.92870462  0.54642204     0.11000
H576        H  0.45476648  0.02814685  0.44384196     0.11000
C577        C  0.21852132  0.69072968  0.45929768    -0.15100
C578        C  0.23107045  0.71696081  0.41789771     0.07000
C579        C  0.21672588  0.69435279  0.37385724    -0.15100
C580        C  0.19350191  0.64663652  0.37114597    -0.15100
C581        C  0.18421409  0.62062232  0.41241930     0.07000
C582        C  0.19538129  0.64318110  0.45657665    -0.15100
H583        H  0.22870764  0.70688958  0.49372011     0.11000
H584        H  0.22559301  0.71354974  0.34118255     0.11000
H585        H  0.18529229  0.63030586  0.33671790     0.11000
H586        H  0.18810431  0.62405451  0.48919730     0.11000
C587        C  0.23777376  0.89787605  0.63426606    -0.15100
C588        C  0.22045961  0.92739671  0.62724811     0.07000
C589        C  0.21698373  0.93961225  0.58056326    -0.15100
C590        C  0.23327598  0.92545121  0.54232242    -0.15100
C591        C  0.25239117  0.89761704  0.54940431     0.07000
C592        C  0.25301034  0.88263425  0.59563690    -0.15100
H593        H  0.24100717  0.88787536  0.66975613     0.11000
H594        H  0.20419151  0.96251156  0.57376428     0.11000
H595        H  0.23237916  0.93762342  0.50716443     0.11000
H596        H  0.26791868  0.86153162  0.60225546     0.11000
C597        C  0.20030299  0.86049094  0.81271745    -0.15100
C598        C  0.17365571  0.87873338  0.82911548     0.07000
C599        C  0.13110778  0.84977876  0.84972763    -0.15100
C600        C  0.11546440  0.80340411  0.85383451    -0.15100
C601        C  0.14210265  0.78517122  0.83740662     0.07000
C602        C  0.18465874  0.81412603  0.81681660    -0.15100
H603        H  0.23292144  0.88186353  0.79580258     0.11000
H604        H  0.10960795  0.86281007  0.86205581     0.11000
H605        H  0.08286126  0.78201740  0.87077179     0.11000
H606        H  0.20616064  0.80109964  0.80447705     0.11000
C607        C  0.11700772  0.10076502  0.71414784    -0.15100
C608        C  0.12975667  0.09150153  0.75844164     0.07000
C609        C  0.12200707  0.11054029  0.79911255    -0.15100
C610        C  0.09949876  0.13570017  0.79570039    -0.15100
C611        C  0.08428145  0.14246302  0.75154151     0.07000
C612        C  0.09463034  0.12577715  0.71074919    -0.15100
H613        H  0.12275965  0.08708335  0.68184616     0.11000
H614        H  0.13127848  0.10414130  0.83368144     0.11000
H615        H  0.09213664  0.14805718  0.82801695     0.11000
H616        H  0.08350685  0.13013072  0.67627198     0.11000
C617        C  0.52034053  0.04484368  0.99093634    -0.15100
C618        C  0.47650980  0.02929484  0.00925234     0.07000
C619        C  0.44913951  0.98315658  0.02129613    -0.15100
C620        C  0.46523563  0.95307113  0.01497502    -0.15100
C621        C  0.50897981  0.96857387  0.99645921     0.07000
C622        C  0.53644168  0.01476016  0.98462486    -0.15100
H623        H  0.54250773  0.08039507  0.98211854     0.11000
H624        H  0.41546077  0.97034267  0.03619114     0.11000
H625        H  0.44304690  0.91751046  0.02373614     0.11000
H626        H  0.57009477  0.02756591  0.96966062     0.11000
C627        C  0.30762748  0.07763688  0.96755608    -0.15100
C628        C  0.35488704  0.10097641  0.95894867     0.07000
C629        C  0.37002437  0.11137929  0.91177254    -0.15100
C630        C  0.33887189  0.09641637  0.87413366    -0.15100
C631        C  0.29165357  0.07110987  0.88258511     0.07000
C632        C  0.27643143  0.06315755  0.92989175    -0.15100
H633        H  0.29469442  0.06900023  0.00338825     0.11000
H634        H  0.40608530  0.12907190  0.90370915     0.11000
H635        H  0.35186759  0.10310055  0.83822516     0.11000
H636        H  0.24037453  0.04351110  0.93779234     0.11000
C637        C  0.41529246  0.98717330  0.20729426    -0.15100
C638        C  0.43008185  0.03370955  0.21438574     0.07000
C639        C  0.43047855  0.04884379  0.26089966    -0.15100
C640        C  0.41359385  0.01794834  0.29870336    -0.15100
C641        C  0.39696072  0.97117312  0.29140491     0.07000
C642        C  0.39951008  0.95635108  0.24550588    -0.15100
H643        H  0.41441266  0.97433306  0.17191532     0.11000
H644        H  0.44117994  0.08423659  0.26770185     0.11000
H645        H  0.41207282  0.03045870  0.33361627     0.11000
H646        H  0.38662757  0.92052093  0.23865246     0.11000
C647        C  0.63303237  0.19734346  0.04230200    -0.15100
C648        C  0.61057611  0.18890591  0.08646598     0.07000
C649        C  0.63670458  0.20045728  0.12782800    -0.15100
C650        C  0.68431714  0.22382233  0.12505827    -0.15100
C651        C  0.70691437  0.23602515  0.08088850     0.07000
C652        C  0.68073780  0.22053777  0.03952537    -0.15100
H653        H  0.61370838  0.18813830  0.00967012     0.11000
H654        H  0.62054473  0.19427511  0.16225268     0.11000
H655        H  0.70354457  0.23467820  0.15773557     0.11000
H656        H  0.69699607  0.22908294  0.00508565     0.11000
C657        C  0.27959274  0.13838081  0.15587906    -0.15100
C658        C  0.29483846  0.18281347  0.17232326     0.07000
C659        C  0.34128735  0.21140289  0.18244763    -0.15100
C660        C  0.37187091  0.19585886  0.17630857    -0.15100
C661        C  0.35662991  0.15141295  0.15991376     0.07000
C662        C  0.31020006  0.12282948  0.14972388    -0.15100
H663        H  0.24388407  0.11532317  0.14850421     0.11000
H664        H  0.35398807  0.24563671  0.19580097     0.11000
H665        H  0.40756697  0.21893502  0.18373755     0.11000
H666        H  0.29754722  0.08860979  0.13635450     0.11000
C667        C  0.18932029  0.38194822  0.32368442    -0.15100
C668        C  0.14379005  0.36635124  0.33626806     0.07000
C669        C  0.11379388  0.31940640  0.34173971    -0.15100
C670        C  0.12920018  0.28868488  0.33549763    -0.15100
C671        C  0.17489879  0.30432144  0.32365046     0.07000
C672        C  0.20471915  0.35122375  0.31742599    -0.15100
H673        H  0.21341023  0.41800840  0.31985459     0.11000
H674        H  0.07857337  0.30642753  0.35166564     0.11000
H675        H  0.10511562  0.25261919  0.33928113     0.11000
H676        H  0.23993671  0.36420473  0.30748578     0.11000
C677        C  0.11857376  0.02564665  0.20735446    -0.15100
C678        C  0.13304700  0.04840748  0.25129754     0.07000
C679        C  0.12711402  0.02240690  0.29196105    -0.15100
C680        C  0.10418211  0.97460337  0.28911900    -0.15100
C681        C  0.08680951  0.95185396  0.24555660     0.07000
C682        C  0.09579457  0.97810742  0.20451939    -0.15100
H683        H  0.12305113  0.04456096  0.17505784     0.11000
H684        H  0.13797707  0.03878284  0.32620558     0.11000
H685        H  0.09809778  0.95538262  0.32149597     0.11000
H686        H  0.08303141  0.96192507  0.17048143     0.11000
C687        C  0.01892537  0.13492712  0.29083395    -0.15100
C688        C  0.04110678  0.14557294  0.24639744     0.07000
C689        C  0.01474750  0.13547022  0.20534572    -0.15100
C690        C  0.96714746  0.11139905  0.20850489    -0.15100
C691        C  0.94500306  0.09719774  0.25274354     0.07000
C692        C  0.97135048  0.11104000  0.29399215    -0.15100
H693        H  0.03839070  0.14283667  0.32329776     0.11000
H694        H  0.03073468  0.14333204  0.17076617     0.11000
H695        H  0.94758952  0.10168881  0.17601558     0.11000
H696        H  0.95535532  0.10072337  0.32845623     0.11000
C697        C  0.30718908  0.18595393  0.63424552    -0.15100
C698        C  0.35194759  0.20853276  0.65169589     0.07000
C699        C  0.36698782  0.18478948  0.67981734    -0.15100
C700        C  0.33736210  0.13917570  0.69076975    -0.15100
C701        C  0.29234276  0.11695981  0.67391316     0.07000
C702        C  0.27765210  0.14062622  0.64531471    -0.15100
H703        H  0.29483028  0.20334803  0.61203328     0.11000
H704        H  0.40161267  0.20128956  0.69293137     0.11000
H705        H  0.34933803  0.12168832  0.71335461     0.11000
H706        H  0.24308730  0.12433053  0.63204296     0.11000
C707        C  0.37248114  0.26184735  0.40371616    -0.15100
C708        C  0.35731607  0.25968428  0.45050153     0.07000
C709        C  0.31028353  0.23909895  0.45900144    -0.15100
C710        C  0.27922028  0.22343237  0.42146441    -0.15100
C711        C  0.29448590  0.22900734  0.37431851     0.07000
C712        C  0.34138683  0.24715927  0.36588715    -0.15100
H713        H  0.40856208  0.27782484  0.39616305     0.11000
H714        H  0.29766232  0.23693063  0.49474455     0.11000
H715        H  0.24344724  0.20974100  0.42928961     0.11000
H716        H  0.35421504  0.25179476  0.32996733     0.11000
C717        C  0.63264413  0.44138979  0.53599229    -0.15100
C718        C  0.60945701  0.42757802  0.57978140     0.07000
C719        C  0.63514577  0.44173175  0.62156700    -0.15100
C720        C  0.68277127  0.46586242  0.61959654    -0.15100
C721        C  0.70596193  0.47634374  0.57582510     0.07000
C722        C  0.68039658  0.46551205  0.53403563    -0.15100
H723        H  0.61394073  0.43131313  0.50298275     0.11000
H724        H  0.61855203  0.43210818  0.65579827     0.11000
H725        H  0.70151749  0.47433870  0.65257584     0.11000
H726        H  0.69716122  0.47309572  0.49986588     0.11000
C727        C  0.54462586  0.19584813  0.62164218    -0.15100
C728        C  0.56543669  0.19063945  0.58098734     0.07000
C729        C  0.55916128  0.20701771  0.53748090    -0.15100
C730        C  0.53547702  0.23078658  0.53526881    -0.15100
C731        C  0.51719955  0.23860148  0.57645052     0.07000
C732        C  0.52062351  0.21940819  0.61936214    -0.15100
H733        H  0.54847114  0.18339242  0.65554419     0.11000
H734        H  0.57466357  0.20363617  0.50530973     0.11000
H735        H  0.53358434  0.24507887  0.50172316     0.11000
H736        H  0.50655628  0.22443217  0.65176505     0.11000
C737        C  0.42094534  0.41227626  0.79357185    -0.15100
C738        C  0.39558294  0.43384272  0.78456887     0.07000
C739        C  0.38791869  0.44086672  0.73734662    -0.15100
C740        C  0.40264086  0.42389398  0.70002035    -0.15100
C741        C  0.42660752  0.40085852  0.70907354     0.07000
C742        C  0.43702270  0.39668433  0.75618924    -0.15100
H743        H  0.42684238  0.40597239  0.82970816     0.11000
H744        H  0.36780151  0.45660581  0.72941983     0.11000
H745        H  0.39386420  0.42729022  0.66401288     0.11000
H746        H  0.45481455  0.37856107  0.76423693     0.11000
C747        C  0.23238579  0.31642289  0.03542914    -0.15100
C748        C  0.25343128  0.36364876  0.04300062     0.07000
C749        C  0.25629421  0.37974804  0.08951114    -0.15100
C750        C  0.24132122  0.34933900  0.12794330    -0.15100
C751        C  0.22211998  0.30213088  0.12047757     0.07000
C752        C  0.21634808  0.28601600  0.07358845    -0.15100
H753        H  0.22983336  0.30311290  0.99993705     0.11000
H754        H  0.27282592  0.41601452  0.09636978     0.11000
H755        H  0.24635928  0.36290143  0.16358918     0.11000
H756        H  0.20197597  0.25000250  0.06646492     0.11000
C757        C  0.17671563  0.31856686  0.86465975    -0.15100
C758        C  0.20358817  0.36031104  0.84150175     0.07000
C759        C  0.18367848  0.37569481  0.80853779    -0.15100
C760        C  0.13755193  0.34946244  0.79855678    -0.15100
C761        C  0.11082122  0.30751162  0.82140017     0.07000
C762        C  0.13063902  0.29239430  0.85473367    -0.15100
H763        H  0.19117281  0.30619218  0.89074438     0.11000
H764        H  0.20354608  0.40817405  0.79091347     0.11000
H765        H  0.12303018  0.36172295  0.77242096     0.11000
H766        H  0.11084054  0.25991345  0.87238022     0.11000
C767        C  0.43049070  0.64272094  0.87449542    -0.15100
C768        C  0.41761857  0.61626435  0.91573559     0.07000
C769        C  0.43103124  0.63877262  0.95995540    -0.15100
C770        C  0.45432903  0.68650973  0.96288898    -0.15100
C771        C  0.46468182  0.71277785  0.92167394     0.07000
C772        C  0.45372393  0.69030786  0.87743922    -0.15100
H773        H  0.42082073  0.62669096  0.83997343     0.11000
H774        H  0.42160362  0.61947356  0.99257852     0.11000
H775        H  0.46204874  0.70269547  0.99738981     0.11000
H776        H  0.46156503  0.70957481  0.84486311     0.11000
C777        C  0.19802165  0.56293044  0.95190114    -0.15100
C778        C  0.18491748  0.57232493  0.90791414     0.07000
C779        C  0.19237961  0.55364664  0.86683751    -0.15100
C780        C  0.21537214  0.52901017  0.86943044    -0.15100
C781        C  0.23135247  0.52249408  0.91315662     0.07000
C782        C  0.22092750  0.53842058  0.95449088    -0.15100
H783        H  0.19233412  0.57630266  0.98446979     0.11000
H784        H  0.18270265  0.56013779  0.83253018     0.11000
H785        H  0.22263044  0.51702175  0.83679347     0.11000
H786        H  0.23249780  0.53400561  0.98868776     0.11000
C787        C  0.64407202  0.79048100  0.81201666    -0.15100
C788        C  0.68862876  0.81494333  0.82988829     0.07000
C789        C  0.70225282  0.85501964  0.85586475    -0.15100
C790        C  0.67215231  0.87091270  0.86305414    -0.15100
C791        C  0.62788916  0.84700062  0.84439288     0.07000
C792        C  0.61390965  0.80637334  0.81925921    -0.15100
H793        H  0.63289565  0.75978059  0.79125653     0.11000
H794        H  0.73645237  0.87456504  0.86991498     0.11000
H795        H  0.68343999  0.90167767  0.88373313     0.11000
H796        H  0.57970638  0.78688440  0.80520862     0.11000
C797        C  0.78182927  0.65305490  0.68066339    -0.15100
C798        C  0.81159843  0.69979802  0.67358561     0.07000
C799        C  0.85672699  0.71515339  0.65957894    -0.15100
C800        C  0.87168105  0.68420783  0.65246653    -0.15100
C801        C  0.84178177  0.63741785  0.65930938     0.07000
C802        C  0.79679287  0.62215726  0.67365946    -0.15100
H803        H  0.74704670  0.64031882  0.69213053     0.11000
H804        H  0.88069454  0.75111913  0.65475494     0.11000
H805        H  0.90644325  0.69687443  0.64096059     0.11000
H806        H  0.77278445  0.58620954  0.67851611     0.11000
C807        C  0.86437439  0.97691022  0.79050915    -0.15100
C808        C  0.85061733  0.95316853  0.74711614     0.07000
C809        C  0.85786465  0.97816371  0.70535008    -0.15100
C810        C  0.88140219  0.02597237  0.70669679    -0.15100
C811        C  0.89802105  0.04968468  0.74985477     0.07000
C812        C  0.88774089  0.02449600  0.79187003    -0.15100
H813        H  0.85888790  0.95869580  0.82350633     0.11000
H814        H  0.84766697  0.96093756  0.67145263     0.11000
H815        H  0.88854207  0.04435861  0.67360879     0.11000
H816        H  0.89980646  0.04150733  0.82566938     0.11000
C817        C  0.96572441  0.86664456  0.71139984    -0.15100
C818        C  0.94313714  0.85586334  0.75553932     0.07000
C819        C  0.96872291  0.86424736  0.79692677    -0.15100
C820        C  0.01628954  0.88731531  0.79443727    -0.15100
C821        C  0.03893940  0.90207335  0.75054591     0.07000
C822        C  0.01322341  0.88948206  0.70890721    -0.15100
H823        H  0.94671995  0.85981456  0.67873052     0.11000
H824        H  0.95226291  0.85600925  0.83126954     0.11000
H825        H  0.03546733  0.89608410  0.82715484     0.11000
H826        H  0.02972272  0.90027956  0.67472320     0.11000
C827        C  0.80088732  0.62224946  0.18379397    -0.15100
C828        C  0.77924540  0.63762486  0.15305584     0.07000
C829        C  0.80438325  0.68089145  0.13222209    -0.15100
C830        C  0.85035676  0.70852338  0.14226339    -0.15100
C831        C  0.87190545  0.69337164  0.17336287     0.07000
C832        C  0.84690879  0.64993699  0.19388633    -0.15100
H833        H  0.78245915  0.58870635  0.19958212     0.11000
H834        H  0.78860702  0.69342217  0.10793895     0.11000
H835        H  0.86872227  0.74206109  0.12645340     0.11000
H836        H  0.86274978  0.63750943  0.21821025     0.11000
C837        C  0.76654290  0.71270450  0.92384431    -0.15100
C838        C  0.76236764  0.69776261  0.87663964     0.07000
C839        C  0.74385521  0.65076805  0.86813041    -0.15100
C840        C  0.72798992  0.61941982  0.90580420    -0.15100
C841        C  0.72935051  0.63435695  0.95258148     0.07000
C842        C  0.74975844  0.68140504  0.96118664    -0.15100
H843        H  0.78029882  0.74848397  0.93181487     0.11000
H844        H  0.73999951  0.63807091  0.83220937     0.11000
H845        H  0.71200336  0.58334614  0.89808026     0.11000
H846        H  0.75121104  0.69390134  0.99687103     0.11000
C847        C  0.51181567  0.53543681  0.02842926    -0.15100
C848        C  0.53717922  0.51749214  0.00786632     0.07000
C849        C  0.51606120  0.48059506  0.97647379    -0.15100
C850        C  0.47017463  0.46177935  0.96593840    -0.15100
C851        C  0.44477839  0.47962776  0.98663328     0.07000
C852        C  0.46591519  0.51659996  0.01791002    -0.15100
H853        H  0.52728906  0.56376275  0.05304583     0.11000
H854        H  0.53472058  0.46573137  0.96071519     0.11000
H855        H  0.45469833  0.43345493  0.94131641     0.11000
H856        H  0.44723560  0.53145841  0.03363073     0.11000
C857        C  0.75878684  0.45625747  0.04142357    -0.15100
C858        C  0.74855234  0.47246552  0.08266165     0.07000
C859        C  0.76495259  0.46650137  0.12637706    -0.15100
C860        C  0.78868148  0.44257536  0.12900326    -0.15100
C861        C  0.79634964  0.42395490  0.08798078     0.07000
C862        C  0.78230332  0.43236719  0.04405197    -0.15100
H863        H  0.74673258  0.46009381  0.00726396     0.11000
H864        H  0.75780636  0.47871616  0.15892378     0.11000
H865        H  0.79900083  0.43677058  0.16328037     0.11000
H866        H  0.78793239  0.41888128  0.01153474     0.11000
C867        C  0.54726794  0.35554131  0.12317339    -0.15100
C868        C  0.56100141  0.38132992  0.08144675     0.07000
C869        C  0.54791814  0.35805030  0.03761258    -0.15100
C870        C  0.52515296  0.31025226  0.03560724    -0.15100
C871        C  0.51511020  0.28476347  0.07738815     0.07000
C872        C  0.52465270  0.30790903  0.12115021    -0.15100
H873        H  0.55634716  0.37214523  0.15744707     0.11000
H874        H  0.55760377  0.37680886  0.00464649     0.11000
H875        H  0.51809993  0.29349587  0.00143243     0.11000
H876        H  0.51662412  0.28918744  0.15410598     0.11000
C877        C  0.57738079  0.57300377  0.29610250    -0.15100
C878        C  0.55692337  0.59952866  0.28763544     0.07000
C879        C  0.55052541  0.60815519  0.24054895    -0.15100
C880        C  0.56675491  0.59298891  0.20289281    -0.15100
C881        C  0.58836994  0.56753774  0.21136696     0.07000
C882        C  0.59219771  0.55648880  0.25836526    -0.15100
H883        H  0.58321658  0.56629241  0.33210649     0.11000
H884        H  0.53567834  0.62915224  0.23299098     0.11000
H885        H  0.56369467  0.60237131  0.16704980     0.11000
H886        H  0.60929158  0.53760851  0.26606011     0.11000
C887        C  0.61403488  0.73902482  0.59448680    -0.15100
C888        C  0.62847391  0.73670159  0.54838062     0.07000
C889        C  0.67514182  0.75365939  0.54030608    -0.15100
C890        C  0.70641473  0.77081056  0.57763098    -0.15100
C891        C  0.69172513  0.77042425  0.62430045     0.07000
C892        C  0.64527926  0.75515944  0.63221892    -0.15100
H893        H  0.57826013  0.72587323  0.60180547     0.11000
H894        H  0.68729697  0.75231533  0.50515678     0.11000
H895        H  0.74178270  0.78185004  0.57030144     0.11000
H896        H  0.63289379  0.75427127  0.66781125     0.11000
C897        C  0.61654291  0.81492687  0.32453144    -0.15100
C898        C  0.63246995  0.78985742  0.34891467     0.07000
C899        C  0.67799651  0.81115580  0.36374273    -0.15100
C900        C  0.70736613  0.85681907  0.35401364    -0.15100
C901        C  0.69167079  0.88195137  0.32934832     0.07000
C902        C  0.64596062  0.86079276  0.31491243    -0.15100
H903        H  0.58129869  0.79931336  0.31356501     0.11000
H904        H  0.69096841  0.79253041  0.38294837     0.11000
H905        H  0.74254445  0.87219466  0.36513523     0.11000
H906        H  0.63316114  0.87936475  0.29533866     0.11000
C907        C  0.47990565  0.52568755  0.52728598    -0.15100
C908        C  0.50881973  0.54474141  0.48825258     0.07000
C909        C  0.51897515  0.51709144  0.45945277    -0.15100
C910        C  0.50073677  0.47117268  0.46973489    -0.15100
C911        C  0.47202357  0.45217842  0.50892104     0.07000
C912        C  0.46165077  0.47975343  0.53756151    -0.15100
H913        H  0.47129018  0.54617472  0.54976571     0.11000
H914        H  0.54069685  0.53078025  0.42860521     0.11000
H915        H  0.50944164  0.45071668  0.44731083     0.11000
H916        H  0.44000703  0.46606676  0.56846322     0.11000
C917        C  0.45237303  0.77264045  0.46618593    -0.15100
C918        C  0.46696585  0.76145899  0.42423466     0.07000
C919        C  0.45935550  0.77722081  0.38098020    -0.15100
C920        C  0.43531919  0.80084563  0.37942735    -0.15100
C921        C  0.41843994  0.80974772  0.42111485     0.07000
C922        C  0.42855954  0.79653217  0.46465467    -0.15100
H923        H  0.45745444  0.76108792  0.50008289     0.11000
H924        H  0.47021007  0.76950087  0.34785958     0.11000
H925        H  0.42837189  0.81050686  0.34533561     0.11000
H926        H  0.41613608  0.80269502  0.49760591     0.11000
C927        C  0.34907095  0.56068535  0.37712145    -0.15100
C928        C  0.37429854  0.57389214  0.41923309     0.07000
C929        C  0.35063064  0.55995328  0.46272480    -0.15100
C930        C  0.30285640  0.53621710  0.46405025    -0.15100
C931        C  0.27781535  0.52605211  0.42192511     0.07000
C932        C  0.30147390  0.53708421  0.37846407    -0.15100
H933        H  0.36604520  0.57059537  0.34309751     0.11000
H934        H  0.36900055  0.56944929  0.49594370     0.11000
H935        H  0.28567905  0.52829045  0.49800257     0.11000
H936        H  0.28313790  0.52927858  0.34526193     0.11000
loop_ 
_geom_bond_atom_site_label_1 
_geom_bond_atom_site_label_2 
_geom_bond_distance 
_geom_bond_site_symmetry_2 
_ccdc_geom_bond_type 
O1           C16   1.274       .  A
O1           Al9   1.924       .  S
C2           O12   1.276       .  A
C2            O3   1.263       .  A
C2          C908   1.464       .  S
O3           Al5   1.849       .  S
O4            C6   1.249       .  A
O4           Al5   1.894       .  S
Al5          O13   1.894       .  S
Al5          O15   1.851       .  S
Al5          O14   1.793       .  S
C6           O19   1.256       .  A
C6          C878   1.489       .  S
O7           C17   1.265       .  A
O7           Al9   1.918       .  S
O8           C21   1.265       .  A
O8          Al18   1.930       .  S
Al9          O22   1.893       .  S
Al9          O19   1.930       .  S
Al9          O14   1.790       .  S
O10          C17   1.257       .  A
O10         Al18   1.884       .  S
O11          C20   1.255       .  A
O11         Al18   1.923       .  S
O12         Al18   1.934       .  S
O13          C20   1.251       .  A
O14         Al18   1.794       .  S
O15          C16   1.264       .  A
C16         C898   1.459       .  S
C17         C928   1.488       .  S
C20         C888   1.487       .  S
C21          O22   1.258       .  A
C21         C918   1.498       .  S
O23          C38   1.276       .  A
O23         Al31   1.928       .  S
C24          O34   1.275       .  A
C24          O25   1.264       .  A
C24         C848   1.461       .  S
O25         Al27   1.853       .  S
O26          C28   1.249       .  A
O26         Al27   1.896       .  S
Al27         O35   1.894       .  S
Al27         O37   1.851       .  S
Al27         O36   1.792       .  S
C28          O41   1.256       .  A
C28         C881   1.491       .  S
O29          C39   1.267       .  A
O29         Al31   1.926       .  S
O30          C43   1.264       .  A
O30         Al40   1.920       .  S
Al31         O44   1.887       .  S
Al31         O41   1.927       .  S
Al31         O36   1.792       .  S
O32          C39   1.257       .  A
O32         Al40   1.886       .  S
O33          C42   1.255       .  A
O33         Al40   1.925   1_556  S
O34         Al40   1.924       .  S
O35          C42   1.250   1_554  A
O36         Al40   1.793       .  S
O37          C38   1.265       .  A
C38         C828   1.463       .  S
C39         C868   1.491       .  S
C42         C841   1.488       .  S
C43          O44   1.256       .  A
C43         C858   1.490       .  S
O45          C60   1.261       .  A
O45         Al53   1.875       .  S
C46          O56   1.263       .  A
C46          O47   1.265       .  A
C46         C788   1.465       .  S
O47         Al49   1.899       .  S
O48          C50   1.254       .  A
O48         Al49   1.903       .  S
Al49         O57   1.907       .  S
Al49         O59   1.900       .  S
Al49         O58   1.787       .  S
C50          O63   1.257       .  A
C50         C891   1.489       .  S
O51          C61   1.270       .  A
O51         Al53   1.928       .  S
O52          C65   1.269       .  A
O52         Al62   1.926       .  S
Al53         O66   1.895       .  S
Al53         O63   1.912       .  S
Al53         O58   1.788       .  S
O54          C61   1.264       .  A
O54         Al62   1.909       .  S
O55          C64   1.258       .  A
O55         Al62   1.916       .  S
O56         Al62   1.875       .  S
O57          C64   1.254       .  A
O58         Al62   1.785       .  S
O59          C60   1.266       .  A
C60         C798   1.467       .  S
C61         C808   1.486       .  S
C64         C838   1.494       .  S
C65          O66   1.261       .  A
C65         C818   1.478       .  S
O67          C82   1.257       .  A
O67         Al75   1.886       .  S
C68          O78   1.264       .  A
C68          O69   1.276       .  A
C68         C851   1.460       .  S
O69         Al71   1.929       .  S
O70          C72   1.255       .  A
O70         Al71   1.878       .  S
Al71         O79   1.919       .  S
Al71         O81   1.924       .  S
Al71         O80   1.788       .  S
C72          O85   1.266       .  A
C72         C768   1.489       .  S
O73          C83   1.257       .  A
O73         Al75   1.926       .  S
O74          C87   1.264       .  A
O74         Al84   1.848       .  S
Al75         O88   1.925       .  S
Al75         O85   1.926       .  S
Al75         O80   1.789       .  S
O76          C83   1.252       .  A
O76         Al84   1.902       .  S
O77          C86   1.252   1_556  A
O77         Al84   1.903       .  S
O78         Al84   1.850       .  S
O79          C86   1.255   1_556  A
O80         Al84   1.791       .  S
O81          C82   1.266       .  A
C82         C781   1.491       .  S
C83         C738   1.486       .  S
C86         C748   1.486       .  S
C87          O88   1.275       .  A
C87         C758   1.458       .  S
O89         C104   1.256       .  A
O89         Al97   1.884       .  S
C90         O100   1.262       .  A
C90          O91   1.275       .  A
C90         C911   1.464       .  S
O91         Al93   1.930       .  S
O92          C94   1.256       .  A
O92         Al93   1.880       .  S
Al93        O101   1.919       .  S
Al93        O103   1.919       .  S
Al93        O102   1.794       .  S
C94         O107   1.266       .  A
C94         C718   1.489       .  S
O95         C105   1.256       .  A
O95         Al97   1.926       .  S
O96         C109   1.263       .  A
O96        Al106   1.850       .  S
Al97        O110   1.931       .  S
Al97        O107   1.926       .  S
Al97        O102   1.792       .  S
O98         C105   1.250       .  A
O98        Al106   1.895       .  S
O99         C108   1.251       .  A
O99        Al106   1.894       .  S
O100       Al106   1.851       .  S
O101        C108   1.254       .  A
O102       Al106   1.791       .  S
O103        C104   1.264       .  A
C104        C731   1.488       .  S
C105        C741   1.488       .  S
C108        C708   1.485       .  S
C109        O110   1.275       .  A
C109        C698   1.464       .  S
O111        C126   1.260       .  A
O111       Al119   1.896       .  S
C112        O122   1.265       .  A
C112        O113   1.264       .  A
C112        C671   1.472       .  S
O113       Al115   1.886       .  S
O114        C116   1.260       .  A
O114       Al115   1.892       .  S
Al115       O123   1.906       .  S
Al115       O125   1.939       .  S
Al115       O124   1.791       .  S
C116        O129   1.271       .  A
C116        C688   1.484       .  S
O117        C127   1.255       .  A
O117       Al119   1.909       .  S
O118        C131   1.266       .  A
O118       Al128   1.896       .  S
Al119       O132   1.887       .  S
Al119       O129   1.935       .  S
Al119       O124   1.789       .  S
O120        C127   1.253       .  A
O120       Al128   1.904       .  S
O121        C130   1.253       .  A
O121       Al128   1.902       .  S
O122       Al128   1.896       .  S
O123        C130   1.255       .  A
O124       Al128   1.795       .  S
O125        C126   1.271       .  A
C126        C678   1.490       .  S
C127        C751   1.493       .  S
C130        C711   1.490       .  S
C131        O132   1.265       .  A
C131        C658   1.471       .  S
O133        C148   1.264       .  A
O133       Al141   1.882       .  S
C134        O144   1.263       .  A
C134        O135   1.264       .  A
C134        C618   1.468       .  S
O135       Al137   1.892       .  S
O136        C138   1.253       .  A
O136       Al137   1.906       .  S
Al137       O145   1.901       .  S
Al137       O147   1.900       .  S
Al137       O146   1.793       .  S
C138        O151   1.257       .  A
C138        C638   1.497       .  S
O139        C149   1.271       .  A
O139       Al141   1.932       .  S
O140        C153   1.269       .  A
O140       Al150   1.932       .  S
Al141       O154   1.905       .  S
Al141       O151   1.922       .  S
Al141       O146   1.790       .  S
O142        C149   1.263       .  A
O142       Al150   1.905       .  S
O143        C152   1.256       .  A
O143       Al150   1.913   1_556  S
O144       Al150   1.879       .  S
O145        C152   1.254   1_554  A
O146       Al150   1.793       .  S
O147        C148   1.266       .  A
C148        C661   1.471       .  S
C149        C648   1.487       .  S
C152        C628   1.495       .  S
C153        O154   1.262       .  A
C153        C871   1.488       .  S
O155        C170   1.264       .  A
O155       Al163   1.886       .  S
C156        O166   1.263       .  A
C156        O157   1.263       .  A
C156        C701   1.463       .  S
O157       Al159   1.891   1_545  S
O158        C160   1.254       .  A
O158       Al159   1.899   1_545  S
Al159       O167   1.911       .  S
Al159       O169   1.885       .  S
Al159       O168   1.794       .  S
C160        O173   1.257       .  A
C160        C631   1.494       .  S
O161        C171   1.273       .  A
O161       Al163   1.946   1_545  S
O162        C175   1.268       .  A
O162       Al172   1.922   1_565  S
Al163       O176   1.894       .  S
Al163       O173   1.917   1_565  S
Al163       O168   1.794       .  S
O164        C171   1.262       .  A
O164       Al172   1.902       .  S
O165        C174   1.255       .  A
O165       Al172   1.909   1_565  S
O166       Al172   1.875       .  S
O167        C174   1.254       .  A
O168       Al172   1.788   1_565  S
O169        C170   1.262       .  A
C170        C598   1.467       .  S
C171        C608   1.495       .  S
C174        C588   1.494       .  S
C175        O176   1.260       .  A
C175        C821   1.477       .  S
O177        C192   1.275       .  A
O177       Al185   1.922       .  S
C178        O188   1.275       .  A
C178        O179   1.263       .  A
C178        C558   1.460       .  S
O179       Al181   1.848       .  S
O180        C182   1.252       .  A
O180       Al181   1.901       .  S
Al181       O189   1.905       .  S
Al181       O191   1.844       .  S
Al181       O190   1.793       .  S
C182        O195   1.255       .  A
C182        C591   1.491       .  S
O183        C193   1.265       .  A
O183       Al185   1.918       .  S
O184        C197   1.265       .  A
O184       Al194   1.930       .  S
Al185       O198   1.894       .  S
Al185       O195   1.924       .  S
Al185       O190   1.792       .  S
O186        C193   1.257       .  A
O186       Al194   1.882       .  S
O187        C196   1.257       .  A
O187       Al194   1.928       .  S
O188       Al194   1.930       .  S
O189        C196   1.253       .  A
O190       Al194   1.791       .  S
O191        C192   1.263       .  A
C192        C571   1.457       .  S
C193        C578   1.487       .  S
C196        C641   1.493       .  S
C197        O198   1.258       .  A
C197        C921   1.498       .  S
O199        C214   1.260       .  A
O199       Al207   1.899       .  S
C200        O210   1.263       .  A
C200        O201   1.263       .  A
C200        C621   1.467       .  S
O201       Al203   1.879       .  S
O202        C204   1.263       .  A
O202       Al203   1.903       .  S
Al203       O211   1.920   1_556  S
Al203       O213   1.934       .  S
Al203       O212   1.793       .  S
C204        O217   1.271       .  A
C204        C551   1.484       .  S
O205        C215   1.256       .  A
O205       Al207   1.918       .  S
O206        C219   1.266       .  A
O206       Al216   1.895       .  S
Al207       O220   1.878       .  S
Al207       O217   1.927       .  S
Al207       O212   1.792       .  S
O208        C215   1.253       .  A
O208       Al216   1.907       .  S
O209        C218   1.253   1_556  A
O209       Al216   1.898       .  S
O210       Al216   1.889       .  S
O211        C218   1.257       .  A
O212       Al216   1.793       .  S
O213        C214   1.269       .  A
C214        C771   1.487       .  S
C215        C538   1.497       .  S
C218        C528   1.497       .  S
C219        O220   1.263       .  A
C219        C791   1.466       .  S
O221        C236   1.260       .  A
O221       Al229   1.898       .  S
C222        O232   1.264       .  A
C222        O223   1.263       .  A
C222        C901   1.461       .  S
O223       Al225   1.871       .  S
O224        C226   1.263       .  A
O224       Al225   1.907       .  S
Al225       O233   1.910   1_565  S
Al225       O235   1.927   1_565  S
Al225       O234   1.793   1_565  S
C226        O239   1.269       .  A
C226        C518   1.488       .  S
O227        C237   1.256       .  A
O227       Al229   1.915   1_565  S
O228        C241   1.263       .  A
O228       Al238   1.887       .  S
Al229       O242   1.877       .  S
Al229       O239   1.929   1_545  S
Al229       O234   1.793       .  S
O230        C237   1.253       .  A
O230       Al238   1.902   1_565  S
O231        C240   1.252       .  A
O231       Al238   1.902       .  S
O232       Al238   1.889   1_565  S
O233        C240   1.255       .  A
O234       Al238   1.795       .  S
O235        C236   1.269       .  A
C236        C691   1.482       .  S
C237        C531   1.496       .  S
C240        C511   1.490       .  S
C241        O242   1.263       .  A
C241        C498   1.465       .  S
O243        C258   1.257       .  A
O243       Al251   1.890       .  S
C244        O254   1.264       .  A
C244        O245   1.277       .  A
C244        C568   1.458       .  S
O245       Al247   1.931       .  S
O246        C248   1.256       .  A
O246       Al247   1.876       .  S
Al247       O255   1.920       .  S
Al247       O257   1.923       .  S
Al247       O256   1.788       .  S
C248        O261   1.266       .  A
C248        C728   1.488       .  S
O249        C259   1.256       .  A
O249       Al251   1.930       .  S
O250        C263   1.265       .  A
O250       Al260   1.844       .  S
Al251       O264   1.929       .  S
Al251       O261   1.929       .  S
Al251       O256   1.786       .  S
O252        C259   1.250       .  A
O252       Al260   1.897       .  S
O253        C262   1.251       .  A
O253       Al260   1.900       .  S
O254       Al260   1.840       .  S
O255        C262   1.254       .  A
O256       Al260   1.790       .  S
O257        C258   1.265       .  A
C258        C488   1.493       .  S
C259        C541   1.492       .  S
C262        C508   1.487       .  S
C263        O264   1.278       .  A
C263        C481   1.457       .  S
O265        C280   1.262       .  A
O265       Al273   1.879       .  S
C266        O276   1.262       .  A
C266        O267   1.267       .  A
C266        C451   1.470       .  S
O267       Al269   1.906       .  S
O268        C270   1.254       .  A
O268       Al269   1.900       .  S
Al269       O277   1.909       .  S
Al269       O279   1.901       .  S
Al269       O278   1.791       .  S
C270        O283   1.258       .  A
C270        C468   1.497       .  S
O271        C281   1.269       .  A
O271       Al273   1.931       .  S
O272        C285   1.271       .  A
O272       Al282   1.928       .  S
Al273       O286   1.908       .  S
Al273       O283   1.923       .  S
Al273       O278   1.790       .  S
O274        C281   1.261       .  A
O274       Al282   1.900       .  S
O275        C284   1.257       .  A
O275       Al282   1.918       .  S
O276       Al282   1.875       .  S
O277        C284   1.254       .  A
O278       Al282   1.790       .  S
O279        C280   1.266       .  A
C280        C668   1.471       .  S
C281        C581   1.485       .  S
C284        C458   1.496       .  S
C285        O286   1.264       .  A
C285        C931   1.485       .  S
O287        C302   1.265       .  A
O287       Al295   1.888       .  S
C288        O298   1.263       .  A
C288        O289   1.263       .  A
C288        C501   1.465       .  S
O289       Al291   1.882       .  S
O290        C292   1.252   1_554  A
O290       Al291   1.903       .  S
Al291       O299   1.898       .  S
Al291       O301   1.886       .  S
Al291       O300   1.796       .  S
C292        O305   1.255       .  A
C292        C428   1.495       .  S
O293        C303   1.271       .  A
O293       Al295   1.935       .  S
O294        C307   1.270       .  A
O294       Al304   1.937       .  S
Al295       O308   1.896       .  S
Al295       O305   1.910   1_554  S
Al295       O300   1.794       .  S
O296        C303   1.262       .  A
O296       Al304   1.898       .  S
O297        C306   1.256       .  A
O297       Al304   1.917       .  S
O298       Al304   1.882       .  S
O299        C306   1.253       .  A
O300       Al304   1.795       .  S
O301        C302   1.264       .  A
C302        C438   1.468       .  S
C303        C651   1.487       .  S
C306        C471   1.496       .  S
C307        O308   1.260       .  A
C307        C861   1.490       .  S
O309        C324   1.274       .  A
O309       Al317   1.921   1_455  S
C310        O320   1.276       .  A
C310        O311   1.263       .  A
C310        C478   1.458       .  S
O311       Al313   1.842       .  S
O312        C314   1.252       .  A
O312       Al313   1.906       .  S
Al313       O321   1.899   1_655  S
Al313       O323   1.849   1_655  S
Al313       O322   1.791       .  S
C314        O327   1.255       .  A
C314        C431   1.486       .  S
O315        C325   1.264       .  A
O315       Al317   1.914       .  S
O316        C329   1.268       .  A
O316       Al326   1.932   1_455  S
Al317       O330   1.886   1_655  S
Al317       O327   1.919       .  S
Al317       O322   1.788       .  S
O318        C325   1.257       .  A
O318       Al326   1.887       .  S
O319        C328   1.259       .  A
O319       Al326   1.935   1_455  S
O320       Al326   1.931       .  S
O321        C328   1.252       .  A
O322       Al326   1.790       .  S
O323        C324   1.264       .  A
C324        C761   1.457       .  S
C325        C811   1.487       .  S
C328        C461   1.493       .  S
C329        O330   1.257       .  A
C329        C611   1.495       .  S
O331        C346   1.262       .  A
O331       Al339   1.903       .  S
C332        O342   1.264       .  A
C332        O333   1.263       .  A
C332        C441   1.467       .  S
O333       Al335   1.879       .  S
O334        C336   1.262       .  A
O334       Al335   1.901       .  S
Al335       O343   1.916   1_556  S
Al335       O345   1.928       .  S
Al335       O344   1.789       .  S
C336        O349   1.272       .  A
C336        C778   1.490       .  S
O337        C347   1.258       .  A
O337       Al339   1.922       .  S
O338        C351   1.263       .  A
O338       Al348   1.888       .  S
Al339       O352   1.883       .  S
Al339       O349   1.939       .  S
Al339       O344   1.791       .  S
O340        C347   1.254       .  A
O340       Al348   1.903       .  S
O341        C350   1.254       .  A
O341       Al348   1.909       .  S
O342       Al348   1.892       .  S
O343        C350   1.257   1_554  A
O344       Al348   1.792       .  S
O345        C346   1.270       .  A
C346        C548   1.484       .  S
C347        C418   1.497       .  S
C350        C408   1.496   1_556  S
C351        O352   1.264       .  A
C351        C601   1.467       .  S
O353        C368   1.257       .  A
O353       Al361   1.885   1_455  S
C354        O364   1.264       .  A
C354        O355   1.276       .  A
C354        C831   1.462       .  S
O355       Al357   1.927       .  S
O356        C358   1.257       .  A
O356       Al357   1.888       .  S
Al357       O365   1.926   1_655  S
Al357       O367   1.924   1_655  S
Al357       O366   1.793       .  S
C358        O371   1.265       .  A
C358        C521   1.491       .  S
O359        C369   1.256       .  A
O359       Al361   1.929       .  S
O360        C373   1.264       .  A
O360       Al370   1.854   1_455  S
Al361       O374   1.923   1_655  S
Al361       O371   1.920       .  S
Al361       O366   1.792       .  S
O362        C369   1.252       .  A
O362       Al370   1.904       .  S
O363        C372   1.251       .  A
O363       Al370   1.901   1_455  S
O364       Al370   1.853       .  S
O365        C372   1.256       .  A
O366       Al370   1.793       .  S
O367        C368   1.266       .  A
C368        C681   1.490       .  S
C369        C398   1.495       .  S
C372        C411   1.492       .  S
C373        O374   1.274       .  A
C373        C561   1.460       .  S
O375        C390   1.262       .  A
O375       Al383   1.903       .  S
C376        O386   1.265       .  A
C376        O377   1.263       .  A
C376        C448   1.470       .  S
O377       Al379   1.877       .  S
O378        C380   1.263       .  A
O378       Al379   1.911       .  S
Al379       O387   1.924       .  S
Al379       O389   1.932       .  S
Al379       O388   1.791       .  S
C380        O393   1.269       .  A
C380        C491   1.489       .  S
O381        C391   1.258       .  A
O381       Al383   1.921       .  S
O382        C395   1.264       .  A
O382       Al392   1.896       .  S
Al383       O396   1.877       .  S
Al383       O393   1.930       .  S
Al383       O388   1.792       .  S
O384        C391   1.254       .  A
O384       Al392   1.903       .  S
O385        C394   1.254       .  A
O385       Al392   1.910       .  S
O386       Al392   1.900       .  S
O387        C394   1.259       .  A
O388       Al392   1.795       .  S
O389        C390   1.270       .  A
C390        C721   1.487       .  S
C391        C421   1.498       .  S
C394        C401   1.499       .  S
C395        O396   1.262       .  A
C395        C801   1.468       .  S
C397        C398   1.407       .  A
C397        C402   1.412       .  A
C397        H403   1.083       .  S
C398        C399   1.407       .  A
C399        C400   1.403       .  A
C399        H404   1.083       .  S
C400        C401   1.407       .  A
C400        H405   1.083       .  S
C401        C402   1.412       .  A
C402        H406   1.083       .  S
C407        C408   1.407       .  A
C407        C412   1.402       .  A
C407        H413   1.083       .  S
C408        C409   1.410       .  A
C409        C410   1.410       .  A
C409        H414   1.083   1_554  S
C410        C411   1.407       .  A
C410        H415   1.083       .  S
C411        C412   1.406       .  A
C412        H416   1.083       .  S
C417        C418   1.408       .  A
C417        C422   1.406       .  A
C417        H423   1.083       .  S
C418        C419   1.409   1_455  A
C419        C420   1.406       .  A
C419        H424   1.083       .  S
C420        C421   1.408       .  A
C420        H425   1.083       .  S
C421        C422   1.409   1_655  A
C422        H426   1.083       .  S
C427        C428   1.410       .  A
C427        C432   1.407       .  A
C427        H433   1.083       .  S
C428        C429   1.408       .  A
C429        C430   1.403       .  A
C429        H434   1.083       .  S
C430        C431   1.405       .  A
C430        H435   1.083       .  S
C431        C432   1.405       .  A
C432        H436   1.083       .  S
C437        C438   1.406   1_455  A
C437        C442   1.391       .  A
C437        H443   1.083       .  S
C438        C439   1.402   1_554  A
C439        C440   1.391       .  A
C439        H444   1.083       .  S
C440        C441   1.405   1_655  A
C440        H445   1.083       .  S
C441        C442   1.402   1_556  A
C442        H446   1.083       .  S
C447        C448   1.404       .  A
C447        C452   1.392       .  A
C447        H453   1.083       .  S
C448        C449   1.404   1_655  A
C449        C450   1.393       .  A
C449        H454   1.083       .  S
C450        C451   1.405       .  A
C450        H455   1.083       .  S
C451        C452   1.404   1_455  A
C452        H456   1.083       .  S
C457        C458   1.411       .  A
C457        C462   1.412       .  A
C457        H463   1.083       .  S
C458        C459   1.406       .  A
C459        C460   1.401       .  A
C459        H464   1.083       .  S
C460        C461   1.407       .  A
C460        H465   1.083       .  S
C461        C462   1.407       .  A
C462        H466   1.083       .  S
C467        C468   1.407       .  A
C467        C472   1.405       .  A
C467        H473   1.083       .  S
C468        C469   1.409   1_455  A
C469        C470   1.406       .  A
C469        H474   1.083       .  S
C470        C471   1.408       .  A
C470        H475   1.083       .  S
C471        C472   1.408   1_655  A
C472        H476   1.083       .  S
C477        C478   1.400       .  A
C477        C482   1.389       .  A
C477        H483   1.083       .  S
C478        C479   1.405       .  A
C479        C480   1.385       .  A
C479        H484   1.083       .  S
C480        C481   1.398       .  A
C480        H485   1.083       .  S
C481        C482   1.406       .  A
C482        H486   1.083       .  S
C487        C488   1.404       .  A
C487        C492   1.402       .  A
C487        H493   1.083       .  S
C488        C489   1.412       .  A
C489        C490   1.404       .  A
C489        H494   1.083       .  S
C490        C491   1.402       .  A
C490        H495   1.083       .  S
C491        C492   1.410       .  A
C492        H496   1.083       .  S
C497        C498   1.405       .  A
C497        C502   1.391       .  A
C497        H503   1.083       .  S
C498        C499   1.402       .  A
C499        C500   1.390       .  A
C499        H504   1.083       .  S
C500        C501   1.405       .  A
C500        H505   1.083       .  S
C501        C502   1.402       .  A
C502        H506   1.083       .  S
C507        C508   1.406       .  A
C507        C512   1.400       .  A
C507        H513   1.084       .  S
C508        C509   1.406       .  A
C509        C510   1.408       .  A
C509        H514   1.083       .  S
C510        C511   1.409       .  A
C510        H515   1.083       .  S
C511        C512   1.406       .  A
C512        H516   1.083       .  S
C517        C518   1.410       .  A
C517        C522   1.400       .  A
C517        H523   1.083       .  S
C518        C519   1.403       .  A
C519        C520   1.405       .  A
C519        H524   1.083       .  S
C520        C521   1.412       .  A
C520        H525   1.083       .  S
C521        C522   1.403       .  A
C522        H526   1.083       .  S
C527        C528   1.409       .  A
C527        C532   1.405       .  A
C527        H533   1.083       .  S
C528        C529   1.408       .  A
C529        C530   1.406       .  A
C529        H534   1.083       .  S
C530        C531   1.408       .  A
C530        H535   1.083       .  S
C531        C532   1.408       .  A
C532        H536   1.083       .  S
C537        C538   1.411   1_545  A
C537        C542   1.410       .  A
C537        H543   1.083       .  S
C538        C539   1.406       .  A
C539        C540   1.403       .  A
C539        H544   1.083       .  S
C540        C541   1.407   1_565  A
C540        H545   1.083       .  S
C541        C542   1.407       .  A
C542        H546   1.083       .  S
C547        C548   1.401       .  A
C547        C552   1.400       .  A
C547        H553   1.083       .  S
C548        C549   1.412       .  A
C549        C550   1.401       .  A
C549        H554   1.083       .  S
C550        C551   1.401       .  A
C550        H555   1.083       .  S
C551        C552   1.411       .  A
C552        H556   1.083       .  S
C557        C558   1.400       .  A
C557        C562   1.389       .  A
C557        H563   1.083       .  S
C558        C559   1.405       .  A
C559        C560   1.388       .  A
C559        H564   1.083       .  S
C560        C561   1.400       .  A
C560        H565   1.083       .  S
C561        C562   1.405       .  A
C562        H566   1.083       .  S
C567        C568   1.399       .  A
C567        C572   1.388       .  A
C567        H573   1.083       .  S
C568        C569   1.406   1_545  A
C569        C570   1.385       .  A
C569        H574   1.083       .  S
C570        C571   1.398       .  A
C570        H575   1.083       .  S
C571        C572   1.406   1_565  A
C572        H576   1.083       .  S
C577        C578   1.402       .  A
C577        C582   1.398       .  A
C577        H583   1.083       .  S
C578        C579   1.412       .  A
C579        C580   1.403       .  A
C579        H584   1.083       .  S
C580        C581   1.402       .  A
C580        H585   1.083       .  S
C581        C582   1.410       .  A
C582        H586   1.083       .  S
C587        C588   1.410       .  A
C587        C592   1.410       .  A
C587        H593   1.083       .  S
C588        C589   1.407       .  A
C589        C590   1.401       .  A
C589        H594   1.083       .  S
C590        C591   1.406       .  A
C590        H595   1.084       .  S
C591        C592   1.407       .  A
C592        H596   1.083       .  S
C597        C598   1.406       .  A
C597        C602   1.391       .  A
C597        H603   1.083       .  S
C598        C599   1.402       .  A
C599        C600   1.391       .  A
C599        H604   1.083       .  S
C600        C601   1.406       .  A
C600        H605   1.083       .  S
C601        C602   1.402       .  A
C602        H606   1.083       .  S
C607        C608   1.413       .  A
C607        C612   1.400       .  A
C607        H613   1.083       .  S
C608        C609   1.404       .  A
C609        C610   1.408       .  A
C609        H614   1.083       .  S
C610        C611   1.415       .  A
C610        H615   1.083       .  S
C611        C612   1.402       .  A
C612        H616   1.083       .  S
C617        C618   1.404   1_556  A
C617        C622   1.391       .  A
C617        H623   1.083       .  S
C618        C619   1.404   1_545  A
C619        C620   1.391       .  A
C619        H624   1.083       .  S
C620        C621   1.403   1_554  A
C620        H625   1.083       .  S
C621        C622   1.404   1_565  A
C622        H626   1.083       .  S
C627        C628   1.409       .  A
C627        C632   1.406       .  A
C627        H633   1.083   1_556  S
C628        C629   1.407       .  A
C629        C630   1.404       .  A
C629        H634   1.083       .  S
C630        C631   1.408       .  A
C630        H635   1.083       .  S
C631        C632   1.408       .  A
C632        H636   1.083       .  S
C637        C638   1.411   1_565  A
C637        C642   1.410       .  A
C637        H643   1.083       .  S
C638        C639   1.406       .  A
C639        C640   1.403       .  A
C639        H644   1.083       .  S
C640        C641   1.407   1_545  A
C640        H645   1.083       .  S
C641        C642   1.407       .  A
C642        H646   1.083       .  S
C647        C648   1.413       .  A
C647        C652   1.403       .  A
C647        H653   1.083       .  S
C648        C649   1.400       .  A
C649        C650   1.400       .  A
C649        H654   1.083       .  S
C650        C651   1.412       .  A
C650        H655   1.083       .  S
C651        C652   1.401       .  A
C652        H656   1.083       .  S
C657        C658   1.404       .  A
C657        C662   1.394       .  A
C657        H663   1.083       .  S
C658        C659   1.405       .  A
C659        C660   1.393       .  A
C659        H664   1.083       .  S
C660        C661   1.404       .  A
C660        H665   1.083       .  S
C661        C662   1.405       .  A
C662        H666   1.083       .  S
C667        C668   1.405       .  A
C667        C672   1.393       .  A
C667        H673   1.083       .  S
C668        C669   1.404       .  A
C669        C670   1.393       .  A
C669        H674   1.083       .  S
C670        C671   1.405       .  A
C670        H675   1.083       .  S
C671        C672   1.404       .  A
C672        H676   1.083       .  S
C677        C678   1.412       .  A
C677        C682   1.398   1_545  A
C677        H683   1.083       .  S
C678        C679   1.402       .  A
C679        C680   1.406   1_545  A
C679        H684   1.083       .  S
C680        C681   1.413       .  A
C680        H685   1.083       .  S
C681        C682   1.401       .  A
C682        H686   1.083       .  S
C687        C688   1.413       .  A
C687        C692   1.400   1_455  A
C687        H693   1.083       .  S
C688        C689   1.400       .  A
C689        C690   1.401   1_455  A
C689        H694   1.083       .  S
C690        C691   1.412       .  A
C690        H695   1.083       .  S
C691        C692   1.400       .  A
C692        H696   1.083       .  S
C697        C698   1.404       .  A
C697        C702   1.386       .  A
C697        H703   1.083       .  S
C698        C699   1.402       .  A
C699        C700   1.393       .  A
C699        H704   1.083       .  S
C700        C701   1.406       .  A
C700        H705   1.083       .  S
C701        C702   1.400       .  A
C702        H706   1.083       .  S
C707        C708   1.405       .  A
C707        C712   1.407       .  A
C707        H713   1.083       .  S
C708        C709   1.405       .  A
C709        C710   1.400       .  A
C709        H714   1.084       .  S
C710        C711   1.406       .  A
C710        H715   1.083       .  S
C711        C712   1.409       .  A
C712        H716   1.083       .  S
C717        C718   1.413       .  A
C717        C722   1.403       .  A
C717        H723   1.083       .  S
C718        C719   1.402       .  A
C719        C720   1.400       .  A
C719        H724   1.083       .  S
C720        C721   1.411       .  A
C720        H725   1.083       .  S
C721        C722   1.402       .  A
C722        H726   1.083       .  S
C727        C728   1.403       .  A
C727        C732   1.403       .  A
C727        H733   1.083       .  S
C728        C729   1.411       .  A
C729        C730   1.399       .  A
C729        H734   1.083       .  S
C730        C731   1.403       .  A
C730        H735   1.083       .  S
C731        C732   1.411       .  A
C732        H736   1.083       .  S
C737        C738   1.408       .  A
C737        C742   1.406       .  A
C737        H743   1.083       .  S
C738        C739   1.404       .  A
C739        C740   1.406       .  A
C739        H744   1.083       .  S
C740        C741   1.409       .  A
C740        H745   1.084       .  S
C741        C742   1.404       .  A
C742        H746   1.083       .  S
C747        C748   1.405       .  A
C747        C752   1.401       .  A
C747        H753   1.084   1_554  S
C748        C749   1.405       .  A
C749        C750   1.407       .  A
C749        H754   1.083       .  S
C750        C751   1.410       .  A
C750        H755   1.083       .  S
C751        C752   1.407       .  A
C752        H756   1.083       .  S
C757        C758   1.404       .  A
C757        C762   1.386       .  A
C757        H763   1.083       .  S
C758        C759   1.401       .  A
C759        C760   1.388       .  A
C759        H764   1.083       .  S
C760        C761   1.405       .  A
C760        H765   1.083       .  S
C761        C762   1.400       .  A
C762        H766   1.083       .  S
C767        C768   1.402       .  A
C767        C772   1.399       .  A
C767        H773   1.083       .  S
C768        C769   1.413       .  A
C769        C770   1.404       .  A
C769        H774   1.083       .  S
C770        C771   1.402       .  A
C770        H775   1.083       .  S
C771        C772   1.411       .  A
C772        H776   1.083       .  S
C777        C778   1.412       .  A
C777        C782   1.399       .  A
C777        H783   1.083       .  S
C778        C779   1.402       .  A
C779        C780   1.405       .  A
C779        H784   1.083       .  S
C780        C781   1.413       .  A
C780        H785   1.083       .  S
C781        C782   1.402       .  A
C782        H786   1.083       .  S
C787        C788   1.405       .  A
C787        C792   1.392       .  A
C787        H793   1.083       .  S
C788        C789   1.402       .  A
C789        C790   1.390       .  A
C789        H794   1.083       .  S
C790        C791   1.404       .  A
C790        H795   1.083       .  S
C791        C792   1.403       .  A
C792        H796   1.083       .  S
C797        C798   1.403       .  A
C797        C802   1.391       .  A
C797        H803   1.083       .  S
C798        C799   1.405       .  A
C799        C800   1.392       .  A
C799        H804   1.083       .  S
C800        C801   1.404       .  A
C800        H805   1.083       .  S
C801        C802   1.404       .  A
C802        H806   1.083       .  S
C807        C808   1.410       .  A
C807        C812   1.397   1_565  A
C807        H813   1.083       .  S
C808        C809   1.403       .  A
C809        C810   1.404   1_565  A
C809        H814   1.083       .  S
C810        C811   1.411       .  A
C810        H815   1.083       .  S
C811        C812   1.402       .  A
C812        H816   1.083       .  S
C817        C818   1.411       .  A
C817        C822   1.397   1_655  A
C817        H823   1.083       .  S
C818        C819   1.399       .  A
C819        C820   1.399   1_655  A
C819        H824   1.083       .  S
C820        C821   1.411       .  A
C820        H825   1.083       .  S
C821        C822   1.399       .  A
C822        H826   1.083       .  S
C827        C828   1.401       .  A
C827        C832   1.390       .  A
C827        H833   1.083       .  S
C828        C829   1.406       .  A
C829        C830   1.388       .  A
C829        H834   1.083       .  S
C830        C831   1.400       .  A
C830        H835   1.083       .  S
C831        C832   1.406       .  A
C832        H836   1.083       .  S
C837        C838   1.407       .  A
C837        C842   1.401       .  A
C837        H843   1.083       .  S
C838        C839   1.410       .  A
C839        C840   1.409       .  A
C839        H844   1.083       .  S
C840        C841   1.406       .  A
C840        H845   1.083       .  S
C841        C842   1.406       .  A
C842        H846   1.084       .  S
C847        C848   1.405       .  A
C847        C852   1.388       .  A
C847        H853   1.083       .  S
C848        C849   1.401   1_554  A
C849        C850   1.388       .  A
C849        H854   1.083       .  S
C850        C851   1.405       .  A
C850        H855   1.083       .  S
C851        C852   1.400   1_556  A
C852        H856   1.083       .  S
C857        C858   1.402       .  A
C857        C862   1.399       .  A
C857        H863   1.083       .  S
C858        C859   1.413       .  A
C859        C860   1.406       .  A
C859        H864   1.083       .  S
C860        C861   1.403       .  A
C860        H865   1.083       .  S
C861        C862   1.412       .  A
C862        H866   1.083       .  S
C867        C868   1.403       .  A
C867        C872   1.400       .  A
C867        H873   1.083       .  S
C868        C869   1.413       .  A
C869        C870   1.405       .  A
C869        H874   1.083       .  S
C870        C871   1.402       .  A
C870        H875   1.083       .  S
C871        C872   1.410       .  A
C872        H876   1.083       .  S
C877        C878   1.409       .  A
C877        C882   1.407       .  A
C877        H883   1.084       .  S
C878        C879   1.404       .  A
C879        C880   1.406       .  A
C879        H884   1.083       .  S
C880        C881   1.409       .  A
C880        H885   1.083       .  S
C881        C882   1.405       .  A
C882        H886   1.083       .  S
C887        C888   1.406       .  A
C887        C892   1.407       .  A
C887        H893   1.083       .  S
C888        C889   1.406       .  A
C889        C890   1.400       .  A
C889        H894   1.083       .  S
C890        C891   1.406       .  A
C890        H895   1.083       .  S
C891        C892   1.409       .  A
C892        H896   1.083       .  S
C897        C898   1.401       .  A
C897        C902   1.391       .  A
C897        H903   1.083       .  S
C898        C899   1.403       .  A
C899        C900   1.386       .  A
C899        H904   1.083       .  S
C900        C901   1.401       .  A
C900        H905   1.083       .  S
C901        C902   1.405       .  A
C902        H906   1.083       .  S
C907        C908   1.399       .  A
C907        C912   1.390       .  A
C907        H913   1.083       .  S
C908        C909   1.407       .  A
C909        C910   1.390       .  A
C909        H914   1.083       .  S
C910        C911   1.399       .  A
C910        H915   1.083       .  S
C911        C912   1.407       .  A
C912        H916   1.083       .  S
C917        C918   1.406       .  A
C917        C922   1.406       .  A
C917        H923   1.083       .  S
C918        C919   1.412       .  A
C919        C920   1.405       .  A
C919        H924   1.083       .  S
C920        C921   1.405       .  A
C920        H925   1.083       .  S
C921        C922   1.412       .  A
C922        H926   1.083       .  S
C927        C928   1.402       .  A
C927        C932   1.398       .  A
C927        H933   1.083       .  S
C928        C929   1.412       .  A
C929        C930   1.403       .  A
C929        H934   1.083       .  S
C930        C931   1.402       .  A
C930        H935   1.083       .  S
C931        C932   1.410       .  A
C932        H936   1.083       .  S
