geometry optimzed in LAMMPS
_audit_creation_date              2020-12-01 
_audit_creation_method            'lammps2cif' 
_symmetry_space_group_name_H-M    'P1' 
_symmetry_Int_Tables_number       1 
_symmetry_cell_setting            triclinic 
loop_ 
_symmetry_equiv_pos_as_xyz 
  x,y,z 
_cell_length_a                    41.17989824 
_cell_length_b                    41.2669248460832 
_cell_length_c                    32.87127851201848 
_cell_angle_alpha                 89.80060637601372 
_cell_angle_beta                  90.31682886860695 
_cell_angle_gamma                 89.92074920287396 
loop_ 
_atom_site_label 
_atom_site_type_symbol 
_atom_site_fract_x 
_atom_site_fract_y 
_atom_site_fract_z 
_atom_site_charge 
O1          O  0.96813993  0.79167568  0.03262007    -0.73100
O2          O  0.03302597  0.85909110  0.03516878    -0.73100
O3          O  0.96676845  0.85725909  0.03601801    -0.73200
O4          O  0.03412642  0.79358798  0.03335030    -0.73200
O5          O  0.03531093  0.79264989  0.46826000    -0.73100
O6          O  0.96819977  0.85693717  0.47079314    -0.73100
O7          O  0.03392720  0.85770710  0.46965021    -0.73100
O8          O  0.96941461  0.79202608  0.46778491    -0.73200
Ni9        Ni  0.00052077  0.82533131  0.03673550     1.25400
Ni10       Ni  0.00170383  0.82486175  0.46679219     1.25400
C11         C  0.95685882  0.78252142  0.99802541     0.89100
C12         C  0.04564103  0.86798417  0.50327298     0.89000
C13         C  0.95501104  0.86855982  0.00274935     0.89100
C14         C  0.04744080  0.78192981  0.50174248     0.89200
O15         O  0.77707368  0.97333959  0.47153725    -0.73100
O16         O  0.84446483  0.03774880  0.47137295    -0.73100
O17         O  0.84231917  0.97250567  0.47303165    -0.73200
O18         O  0.77904502  0.03978714  0.46822986    -0.73200
O19         O  0.77542821  0.04323265  0.03267068    -0.73100
O20         O  0.84002529  0.97570526  0.03808219    -0.73100
O21         O  0.84096723  0.04123269  0.03711750    -0.73100
O22         O  0.77446267  0.97731328  0.03509288    -0.73200
Ni23       Ni  0.81056820  0.00581418  0.46865692     1.25400
Ni24       Ni  0.80751892  0.00943809  0.03814672     1.25400
C25         C  0.76637272  0.96257378  0.50563955     0.89100
C26         C  0.85361451  0.05112958  0.00390443     0.89000
C27         C  0.85292883  0.96194411  0.50719577     0.89100
C28         C  0.76712307  0.05462532  0.99775074     0.89200
O29         O  0.96445840  0.22045289  0.48027354    -0.73100
O30         O  0.03527464  0.16001662  0.47556487    -0.73100
O31         O  0.96959713  0.15561098  0.47698586    -0.73200
O32         O  0.03041620  0.22531560  0.47765261    -0.73200
O33         O  0.03556147  0.22108723  0.04000350    -0.73100
O34         O  0.96999086  0.15471849  0.04373489    -0.73100
O35         O  0.03585818  0.15531294  0.04164777    -0.73100
O36         O  0.96961058  0.22009091  0.04347699    -0.73200
Ni37       Ni  0.99991501  0.19049021  0.47527387     1.25400
Ni38       Ni  0.00286879  0.18785356  0.04469356     1.25400
C39         C  0.95326695  0.22925753  0.51488479     0.89100
C40         C  0.04613521  0.14479264  0.00748652     0.89000
C41         C  0.95924191  0.14367634  0.51043689     0.89100
C42         C  0.04542590  0.23117134  0.00520645     0.89200
O43         O  0.22282922  0.04228231  0.45778325    -0.73100
O44         O  0.15646166  0.97671780  0.46157460    -0.73100
O45         O  0.15758215  0.04234893  0.46480358    -0.73200
O46         O  0.22160467  0.97580581  0.45289101    -0.73200
O47         O  0.22893687  0.97336109  0.01996121    -0.73100
O48         O  0.16308439  0.03860009  0.03327228    -0.73100
O49         O  0.16340408  0.97327829  0.02833946    -0.73100
O50         O  0.22861878  0.03952789  0.02628070    -0.73200
Ni51       Ni  0.18954367  0.00937864  0.45683856     1.25400
Ni52       Ni  0.19637425  0.00601703  0.02934083     1.25400
C53         C  0.23509424  0.05278269  0.49127345     0.89100
C54         C  0.14897082  0.96485478  0.99543817     0.89000
C55         C  0.14887544  0.05157869  0.50023800     0.89100
C56         C  0.23565094  0.96331001  0.98406215     0.89200
C57         C  0.18456010  0.64715205  0.46387167     0.87800
C58         C  0.15534614  0.67021234  0.46387425    -0.52400
C59         C  0.15472624  0.69139273  0.49561705     0.10800
C60         C  0.17978123  0.68767199  0.02732944     0.21700
C61         C  0.21361814  0.67057354  0.46490679    -0.53100
C62         C  0.21030883  0.69114418  0.00018576     0.10900
C63         C  0.18420984  0.63080158  0.50558758    -0.52700
C64         C  0.17815188  0.65136625  0.03944586     0.11400
H65         H  0.13674554  0.67005767  0.44031736     0.16000
H66         H  0.17912080  0.70450383  0.05358510     0.01700
H67         H  0.23074463  0.67336682  0.44033251     0.16300
H68         H  0.17754885  0.60469338  0.01027882     0.16100
C69         C  0.35434852  0.81693630  0.03246117     0.87800
C70         C  0.33654273  0.84922447  0.02522862    -0.52400
C71         C  0.31912314  0.85206793  0.49248772     0.10800
C72         C  0.31953969  0.81963059  0.46878017     0.21700
C73         C  0.32775841  0.79132943  0.03235822    -0.53100
C74         C  0.30949076  0.79389966  0.50079127     0.10900
C75         C  0.37289524  0.81194858  0.99247151    -0.52700
C76         C  0.35591650  0.81276967  0.46099677     0.11400
H77         H  0.33937853  0.87005484  0.04459604     0.16000
H78         H  0.30458174  0.81939593  0.44061226     0.01700
H79         H  0.32460121  0.77400784  0.05700668     0.16300
H80         H  0.40044181  0.80845058  0.49509659     0.16100
N81         N  0.49707317  0.80441526  0.30999760    -0.35300
N82         N  0.54946517  0.80776635  0.24918944    -0.55800
N83         N  0.50131917  0.80829548  0.18588296    -0.35200
N84         N  0.44880318  0.80884217  0.24656270    -0.55800
C85         C  0.52304862  0.81054086  0.33408269     0.28300
C86         C  0.47013170  0.80971685  0.33259244     0.28300
C87         C  0.52827420  0.81568430  0.16421464     0.28300
C88         C  0.47532282  0.81651450  0.16272582     0.28300
C89         C  0.56748992  0.80307104  0.28307659     0.37000
C90         C  0.56975537  0.80425144  0.21728566     0.37000
C91         C  0.42873795  0.80275487  0.27817010     0.37000
C92         C  0.43110932  0.80442545  0.21232435     0.37000
C93         C  0.51245716  0.81915043  0.37262056    -0.20500
C94         C  0.47916656  0.81869483  0.37163099    -0.20500
C95         C  0.51924932  0.82872000  0.12691587    -0.20500
C96         C  0.48588299  0.82935134  0.12601626    -0.20500
C97         C  0.59950049  0.79679749  0.27270680    -0.21600
C98         C  0.60088676  0.79735480  0.23093204    -0.21600
C99         C  0.39805607  0.79485973  0.26404231    -0.21600
C100        C  0.39959279  0.79567086  0.22230501    -0.21600
C101        C  0.55612221  0.80720135  0.32317047    -0.16900
C102        C  0.43756211  0.80544265  0.31960518    -0.16900
C103        C  0.44238054  0.81038360  0.17235239    -0.16900
C104        C  0.56079542  0.80949773  0.17627403    -0.16900
H105        H  0.52714466  0.82502538  0.39897556     0.16000
H106        H  0.46342537  0.82434010  0.39690473     0.16000
H107        H  0.53507155  0.83679799  0.10273774     0.16000
H108        H  0.47106144  0.83791010  0.10088374     0.16000
H109        H  0.61981774  0.79271992  0.29312973     0.14300
H110        H  0.62243707  0.79381934  0.21277126     0.14300
H111        H  0.37684159  0.78904932  0.28192301     0.14300
H112        H  0.37964667  0.79067061  0.20170921     0.14300
H113        H  0.49787569  0.79413245  0.28126811     0.27500
H114        H  0.50049911  0.79471021  0.21251696     0.27500
C115        C  0.64362044  0.82071284  0.46173712     0.87800
C116        C  0.66096535  0.85287905  0.47041046    -0.52400
C117        C  0.68044648  0.85241992  0.50407822     0.10800
C118        C  0.67906685  0.82290368  0.02601083     0.21700
C119        C  0.67173407  0.79642489  0.45947556    -0.53100
C120        C  0.69091886  0.79484239  0.49338068     0.10900
C121        C  0.62572206  0.81247547  0.50104869    -0.52700
C122        C  0.64236603  0.81872794  0.03479176     0.11400
H123        H  0.66194924  0.87316667  0.44956744     0.16000
H124        H  0.69472164  0.82231237  0.05360992     0.01700
H125        H  0.67624363  0.78178263  0.43269072     0.16300
H126        H  0.59972522  0.80803233  0.50172257     0.16100
C127        C  0.81568043  0.65561613  0.04080941     0.87800
C128        C  0.84680949  0.67567282  0.03644111    -0.52400
C129        C  0.84867555  0.69391435  0.00180389     0.10800
C130        C  0.82105600  0.68968934  0.47559646     0.21700
C131        C  0.78903225  0.68161041  0.03898143    -0.53100
C132        C  0.79337560  0.69925608  0.50489198     0.10900
C133        C  0.81233306  0.63660949  0.00116862    -0.52700
C134        C  0.81560373  0.65329731  0.46702216     0.11400
H135        H  0.86488837  0.67745428  0.06042955     0.16000
H136        H  0.82207613  0.70463102  0.44751593     0.01700
H137        H  0.77155801  0.68577007  0.06300296     0.16300
H138        H  0.81044906  0.60872541  0.50063365     0.16100
C139        C  0.36315532  0.20011382  0.46423118     0.87800
C140        C  0.34360077  0.16847217  0.46219412    -0.52400
C141        C  0.32099761  0.16705232  0.99440399     0.10800
C142        C  0.31994072  0.19552846  0.02500155     0.21700
C143        C  0.33649109  0.22635257  0.46482592    -0.53100
C144        C  0.31234154  0.22521459  0.99722374     0.10900
C145        C  0.37812444  0.20050507  0.50677470    -0.52700
C146        C  0.35575205  0.19996529  0.03955877     0.11400
H147        H  0.34668809  0.15079687  0.43811700     0.16000
H148        H  0.30228597  0.19175438  0.04991839     0.01700
H149        H  0.33378082  0.24506559  0.44205105     0.16300
H150        H  0.40302414  0.20699328  0.01341758     0.16100
C151        C  0.18269162  0.36830770  0.03039539     0.87800
C152        C  0.15238973  0.34666093  0.03132974    -0.52400
C153        C  0.14960425  0.32531972  0.99979622     0.10800
C154        C  0.17904887  0.32390975  0.47248633     0.21700
C155        C  0.21048968  0.34353491  0.02997031    -0.53100
C156        C  0.20867880  0.32103191  0.99962304     0.10900
C157        C  0.18278632  0.38394543  0.98839295    -0.52700
C158        C  0.18086814  0.35962204  0.45727521     0.11400
H159        H  0.13558711  0.34696361  0.05661729     0.16000
H160        H  0.17521409  0.30580831  0.44806083     0.01700
H161        H  0.22913445  0.34238452  0.05315038     0.16300
H162        H  0.18344476  0.41003932  0.98384076     0.16100
N163        N  0.17269310  0.49913472  0.31040065    -0.35300
N164        N  0.17804102  0.45585272  0.24335482    -0.55800
N165        N  0.17542705  0.51271149  0.18762040    -0.35200
N166        N  0.17331355  0.55594557  0.25449083    -0.55800
C167        C  0.17961350  0.47104918  0.33025241     0.28300
C168        C  0.17923739  0.52364654  0.33633042     0.28300
C169        C  0.18421677  0.48879434  0.16202930     0.28300
C170        C  0.18074462  0.54121075  0.16807588     0.28300
C171        C  0.17273219  0.43329931  0.27261685     0.37000
C172        C  0.17464051  0.44069196  0.20730160     0.37000
C173        C  0.16767574  0.57088272  0.29013320     0.37000
C174        C  0.16792977  0.57815411  0.22477905     0.37000
C175        C  0.19035445  0.47785271  0.36931871    -0.20500
C176        C  0.19016967  0.51098080  0.37315231    -0.20500
C177        C  0.19509318  0.50220266  0.12576873    -0.20500
C178        C  0.19292102  0.53522793  0.12961168    -0.20500
C179        C  0.16640068  0.40350797  0.25513145    -0.21600
C180        C  0.16768648  0.40815572  0.21367704    -0.21600
C181        C  0.15887250  0.60292949  0.28308756    -0.21600
C182        C  0.15893036  0.60748580  0.24156793    -0.21600
C183        C  0.17499024  0.43934615  0.31482643    -0.16900
C184        C  0.17361952  0.55702178  0.32885939    -0.16900
C185        C  0.17311667  0.57242548  0.18299844    -0.16900
C186        C  0.17987981  0.45523433  0.16884577    -0.16900
H187        H  0.19751613  0.46071433  0.39271800     0.16000
H188        H  0.19694519  0.52420230  0.40027424     0.16000
H189        H  0.20319724  0.48952255  0.09890246     0.16000
H190        H  0.19921713  0.55280868  0.10645746     0.16000
H191        H  0.16162941  0.38082443  0.27058661     0.14300
H192        H  0.16416634  0.38963843  0.19083858     0.14300
H193        H  0.15352699  0.62125821  0.30556436     0.14300
H194        H  0.15360684  0.62988664  0.22564483     0.14300
H195        H  0.16067983  0.50148753  0.28267416     0.27500
H196        H  0.16264562  0.50937799  0.21444756     0.27500
N197        N  0.49823040  0.19850699  0.18600025    -0.35300
N198        N  0.45409093  0.19914212  0.25295670    -0.55800
N199        N  0.51035381  0.19613512  0.30918810    -0.35200
N200        N  0.55450747  0.19893767  0.24245945    -0.55800
C201        C  0.46991148  0.20523295  0.16635369     0.28300
C202        C  0.52270837  0.20683271  0.16076037     0.28300
C203        C  0.48600301  0.20356251  0.33491169     0.28300
C204        C  0.53861358  0.20190669  0.32920869     0.28300
C205        C  0.43206757  0.19396052  0.22291209     0.37000
C206        C  0.43867327  0.19378094  0.28848174     0.37000
C207        C  0.56992795  0.19461258  0.20677394     0.37000
C208        C  0.57639934  0.19234991  0.27229467     0.37000
C209        C  0.47651916  0.21786997  0.12819018    -0.20500
C210        C  0.50977015  0.21908164  0.12474662    -0.20500
C211        C  0.49891957  0.21408156  0.37166314    -0.20500
C212        C  0.53208631  0.21296677  0.36808299    -0.20500
C213        C  0.40239536  0.18552007  0.23940644    -0.21600
C214        C  0.40654489  0.18549247  0.28101836    -0.21600
C215        C  0.60191141  0.18538718  0.21403515    -0.21600
C216        C  0.60600064  0.18404081  0.25560073    -0.21600
C217        C  0.43827140  0.19856090  0.18101045    -0.16900
C218        C  0.55629488  0.20134043  0.16792894    -0.16900
C219        C  0.57013353  0.19557521  0.31428959    -0.16900
C220        C  0.45252251  0.19863532  0.32749338    -0.16900
H221        H  0.45916841  0.22531577  0.10511967     0.16000
H222        H  0.52292012  0.22753937  0.09835287     0.16000
H223        H  0.48581244  0.22131500  0.39860650     0.16000
H224        H  0.54941837  0.21931579  0.39160651     0.16000
H225        H  0.38005564  0.18035779  0.22320259     0.14300
H226        H  0.38796548  0.18028717  0.30326147     0.14300
H227        H  0.62049760  0.18049740  0.19172217     0.14300
H228        H  0.62821668  0.17797850  0.27166346     0.14300
H229        H  0.50082050  0.18533712  0.21281954     0.27500
H230        H  0.50769978  0.18406575  0.28168777     0.27500
C231        C  0.64611278  0.20583477  0.03040143     0.87800
C232        C  0.66607320  0.17442650  0.03158826    -0.52400
C233        C  0.68591993  0.16949098  0.99891942     0.10800
C234        C  0.68476893  0.19492206  0.47089404     0.21700
C235        C  0.67175406  0.23264038  0.02580827    -0.53100
C236        C  0.69239930  0.22838613  0.99408829     0.10900
C237        C  0.62877186  0.20554305  0.98888679    -0.52700
C238        C  0.64859608  0.19728106  0.45852725     0.11400
H239        H  0.66470453  0.15773006  0.05709714     0.16000
H240        H  0.70121252  0.19295065  0.44441971     0.01700
H241        H  0.67452856  0.25361755  0.04489231     0.16300
H242        H  0.60261431  0.20791757  0.98545562     0.16100
C243        C  0.82378978  0.36606511  0.46942515     0.87800
C244        C  0.85254497  0.34280023  0.47650029    -0.52400
C245        C  0.84934158  0.32283502  0.50946910     0.10800
C246        C  0.82166325  0.32827092  0.03147823     0.21700
C247        C  0.79465984  0.34297087  0.46706063    -0.53100
C248        C  0.79087463  0.32321263  0.50007842     0.10900
C249        C  0.81983977  0.38415323  0.50967419    -0.52700
C250        C  0.81989373  0.36487084  0.04218936     0.11400
H251        H  0.87230852  0.33913467  0.45556155     0.16000
H252        H  0.81900031  0.31190619  0.05811549     0.01700
H253        H  0.77911143  0.34140359  0.44033446     0.16300
H254        H  0.81959827  0.41043563  0.51167004     0.16100
N255        N  0.81418109  0.50635563  0.19191946    -0.35300
N256        N  0.82036414  0.45960552  0.25634887    -0.55800
N257        N  0.81708442  0.51328860  0.31584369    -0.35200
N258        N  0.81460089  0.56011458  0.25142326    -0.55800
C259        C  0.82030742  0.47926543  0.16999871     0.28300
C260        C  0.81892394  0.53209682  0.16714985     0.28300
C261        C  0.82541633  0.48814463  0.34017518     0.28300
C262        C  0.82183843  0.54083970  0.33742513     0.28300
C263        C  0.81543608  0.43858932  0.22537557     0.37000
C264        C  0.81752074  0.44234985  0.29110029     0.37000
C265        C  0.80897269  0.57710040  0.21696807     0.37000
C266        C  0.80996239  0.58080425  0.28274295     0.37000
C267        C  0.82878466  0.48790244  0.13071791    -0.20500
C268        C  0.82778033  0.52111484  0.12882756    -0.20500
C269        C  0.83538242  0.49982212  0.37778209    -0.20500
C270        C  0.83314384  0.53300654  0.37602834    -0.20500
C271        C  0.81006375  0.40772126  0.24047194    -0.21600
C272        C  0.81141223  0.41007985  0.28214919    -0.21600
C273        C  0.80121211  0.60894953  0.22647540    -0.21600
C274        C  0.80167630  0.61122009  0.26817588    -0.21600
C275        C  0.81681851  0.44685648  0.18366206    -0.16900
C276        C  0.81337278  0.56509631  0.17709075    -0.16900
C277        C  0.81471419  0.57280868  0.32416674    -0.16900
C278        C  0.82193103  0.45485904  0.33075700    -0.16900
H279        H  0.83475166  0.47192350  0.10579565     0.16000
H280        H  0.83253670  0.53538619  0.10185830     0.16000
H281        H  0.84309043  0.48585309  0.40404862     0.16000
H282        H  0.83894695  0.54947779  0.40056483     0.16000
H283        H  0.80568060  0.38582205  0.22328601     0.14300
H284        H  0.80831973  0.39026780  0.30343578     0.14300
H285        H  0.79616149  0.62867028  0.20559286     0.14300
H286        H  0.79695481  0.63286013  0.28569752     0.14300
H287        H  0.80360596  0.50727163  0.22065146     0.27500
H288        H  0.80499127  0.51129573  0.28800248     0.27500
C289        C  0.84219689  0.37981922  0.11114110     0.25000
C290        C  0.81597352  0.37921110  0.08354692    -0.23200
C291        C  0.78852380  0.39833428  0.09198876     0.19900
C292        C  0.78805308  0.41877529  0.12603380     0.24900
C293        C  0.81512045  0.42074022  0.15218513    -0.23100
C294        C  0.84186103  0.40040475  0.14506713     0.19800
F295        F  0.86859739  0.40216948  0.16931688    -0.13100
F296        F  0.86933420  0.36257205  0.10356861    -0.15400
F297        F  0.76184927  0.43806768  0.13232673    -0.15400
F298        F  0.76284385  0.39852417  0.06591942    -0.13100
C299        C  0.85180987  0.41607293  0.37580259     0.25000
C300        C  0.82283260  0.43169001  0.36514327    -0.23200
C301        C  0.79515415  0.42709915  0.38885105     0.19900
C302        C  0.79619422  0.40656377  0.42260218     0.24900
C303        C  0.82487919  0.38936567  0.43298320    -0.23100
C304        C  0.85314277  0.39548653  0.40963877     0.19800
F305        F  0.88271923  0.38379572  0.42025493    -0.13100
F306        F  0.87919518  0.42167663  0.35406093    -0.15400
F307        F  0.76892686  0.40359967  0.44537639    -0.15400
F308        F  0.76710494  0.44281654  0.37938935    -0.13100
C309        C  0.71018164  0.28074521  0.48308539     0.25000
C310        C  0.72013953  0.25083865  0.98910408    -0.23200
C311        C  0.75070934  0.24277413  0.00554508     0.19900
C312        C  0.77516546  0.26630532  0.00913232     0.24900
C313        C  0.76921316  0.29853307  0.99711927    -0.23100
C314        C  0.73364677  0.30506742  0.48641305     0.19800
F315        F  0.72513322  0.33602896  0.47705149    -0.13100
F316        F  0.67963316  0.28874198  0.47087983    -0.15400
F317        F  0.80464280  0.25743424  0.02408299    -0.15400
F318        F  0.75629546  0.21251358  0.02025400    -0.13100
C319        C  0.59792558  0.16586761  0.37119451     0.25000
C320        C  0.59702812  0.19281386  0.34491773    -0.23200
C321        C  0.61741357  0.21937896  0.35322216     0.19900
C322        C  0.63660675  0.21986459  0.38879378     0.24900
C323        C  0.63551727  0.19386231  0.41650554    -0.23100
C324        C  0.61688024  0.16644177  0.40669551     0.19800
F325        F  0.61543590  0.14102139  0.43297009    -0.13100
F326        F  0.57847709  0.13995741  0.36395663    -0.15400
F327        F  0.65409059  0.24677582  0.39784075    -0.15400
F328        F  0.61663596  0.24588858  0.32868008    -0.13100
C329        C  0.57647485  0.18113321  0.10085873     0.25000
C330        C  0.57860889  0.20352733  0.13264871    -0.23200
C331        C  0.60227178  0.22779750  0.13115471     0.19900
C332        C  0.62417955  0.22937346  0.09891286     0.24900
C333        C  0.62230535  0.20695493  0.06627473    -0.23100
C334        C  0.59795802  0.18275704  0.06820304     0.19800
F335        F  0.59541803  0.15991192  0.03869602    -0.13100
F336        F  0.55380401  0.15727936  0.10179059    -0.15400
F337        F  0.64761550  0.25212597  0.10183762    -0.15400
F338        F  0.60455496  0.24983700  0.16163164    -0.13100
C339        C  0.19850119  0.38993079  0.35066940     0.25000
C340        C  0.17276924  0.41208720  0.34504825    -0.23200
C341        C  0.14697101  0.41173314  0.37288184     0.19900
C342        C  0.14817956  0.39183666  0.40746134     0.24900
C343        C  0.17514038  0.37164275  0.41498838    -0.23100
C344        C  0.19969731  0.36988625  0.38548043     0.16600
F345        F  0.22627389  0.35112178  0.39222620    -0.13100
F346        F  0.22374613  0.38966425  0.32430325    -0.15400
F347        F  0.12423314  0.39431809  0.43552813    -0.15400
F348        F  0.12174872  0.43266961  0.36817809    -0.13100
C349        C  0.15415851  0.40953529  0.07516505     0.25000
C350        C  0.18322250  0.39340996  0.06442278    -0.23200
C351        C  0.21208719  0.40204721  0.08527420     0.19900
C352        C  0.21076645  0.42148390  0.11984907     0.24900
C353        C  0.18107415  0.43405627  0.13290394    -0.23100
C354        C  0.15302608  0.42910499  0.10960165     0.19800
F355        F  0.12460515  0.44344941  0.12016256    -0.13100
F356        F  0.12677159  0.40649988  0.05228116    -0.15400
F357        F  0.23863793  0.42899794  0.13994114    -0.15400
F358        F  0.24182107  0.39384278  0.07108498    -0.13100
C359        C  0.26808272  0.25332260  0.45966704     0.25000
C360        C  0.28215894  0.24559355  0.99834345    -0.23200
C361        C  0.26939224  0.25651480  0.03529712     0.19900
C362        C  0.24386493  0.27904473  0.03566072     0.24900
C363        C  0.23150099  0.29259161  0.99895913    -0.23100
C364        C  0.24304432  0.27649375  0.46035174     0.19800
F365        F  0.23016495  0.28698692  0.42459540    -0.13100
F366        F  0.27687914  0.24076523  0.42322628    -0.15400
F367        F  0.23138202  0.28753527  0.07225945    -0.15400
F368        F  0.28244873  0.24659000  0.07123205    -0.13100
C369        C  0.36829685  0.22192861  0.10965585     0.25000
C370        C  0.36883306  0.19606357  0.08180018    -0.23200
C371        C  0.38918380  0.16940881  0.09019494     0.19900
C372        C  0.41013734  0.16949379  0.12395221     0.24900
C373        C  0.41115827  0.19613707  0.15041778    -0.23100
C374        C  0.38918053  0.22187442  0.14387026     0.19800
F375        F  0.38968540  0.24798362  0.16887016    -0.13100
F376        F  0.34962968  0.24839316  0.10194479    -0.15400
F377        F  0.43108169  0.14439432  0.12937330    -0.15400
F378        F  0.39065794  0.14433420  0.06362943    -0.13100
C379        C  0.42874819  0.17314349  0.38948291     0.25000
C380        C  0.43067438  0.19969277  0.36302159    -0.23200
C381        C  0.41430484  0.22838024  0.37252020     0.19900
C382        C  0.39413967  0.22985075  0.40650805     0.24900
C383        C  0.38889723  0.20193458  0.43078542    -0.23100
C384        C  0.40856953  0.17441277  0.42342358     0.19800
F385        F  0.40799462  0.14844572  0.44892868    -0.13100
F386        F  0.44650290  0.14600485  0.38240322    -0.15400
F387        F  0.38209722  0.25925146  0.41673388    -0.15400
F388        F  0.41877006  0.25535872  0.34946761    -0.13100
C389        C  0.78611313  0.61763517  0.41770428     0.25000
C390        C  0.81248687  0.63828034  0.42601319    -0.23200
C391        C  0.83765840  0.64065549  0.39736971     0.19900
C392        C  0.83757799  0.62082391  0.36259308     0.24900
C393        C  0.81219523  0.59859167  0.35591792    -0.23100
C394        C  0.78595104  0.59807970  0.38301175     0.19800
F395        F  0.76092087  0.57724462  0.37691500    -0.13100
F396        F  0.76104588  0.61541955  0.44422942    -0.15400
F397        F  0.86322337  0.62179672  0.33685553    -0.15400
F398        F  0.86349911  0.66023123  0.40464055    -0.13100
C399        C  0.78517461  0.62251815  0.09432783     0.25000
C400        C  0.81501175  0.63305597  0.07769068    -0.23200
C401        C  0.84397026  0.61851245  0.09251253     0.19900
C402        C  0.84335788  0.59776791  0.12596783     0.24900
C403        C  0.81378974  0.58889573  0.14341842    -0.23100
C404        C  0.78469643  0.60092868  0.12712759     0.19800
F405        F  0.75577414  0.59110464  0.14247196    -0.13100
F406        F  0.75630314  0.63157924  0.07773805    -0.15400
F407        F  0.87162264  0.58488932  0.14015236    -0.15400
F408        F  0.87281117  0.62243039  0.07335918    -0.13100
C409        C  0.74520255  0.78086684  0.00963363     0.25000
C410        C  0.71796573  0.77085664  0.49629607    -0.23200
C411        C  0.71328122  0.73904409  0.48171130     0.19900
C412        C  0.73867539  0.71660745  0.48215424     0.24900
C413        C  0.76914629  0.72510551  0.49777703    -0.23100
C414        C  0.77050519  0.75799417  0.00999266     0.19800
F415        F  0.80039879  0.76704569  0.02320498    -0.13100
F416        F  0.75181688  0.81197746  0.01994572    -0.15400
F417        F  0.73311958  0.68595165  0.46895072    -0.15400
F418        F  0.68365395  0.72913696  0.46839780    -0.13100
C419        C  0.60809729  0.83530335  0.13974284     0.25000
C420        C  0.58628086  0.80932460  0.14405415    -0.23200
C421        C  0.58666736  0.78433582  0.11516740     0.19900
C422        C  0.60691472  0.78629045  0.08116653     0.24900
C423        C  0.62732523  0.81324148  0.07538814    -0.23100
C424        C  0.62864197  0.83710371  0.10579170     0.19800
F425        F  0.64809143  0.86327339  0.10131512    -0.13100
F426        F  0.60810838  0.85984005  0.16714438    -0.15400
F427        F  0.60564570  0.76243073  0.05286026    -0.15400
F428        F  0.56628338  0.75869429  0.11904685    -0.13100
C429        C  0.59060127  0.84153187  0.36769661     0.25000
C430        C  0.58038525  0.81059180  0.35607726    -0.23200
C431        C  0.58981547  0.78358390  0.37898017     0.19900
C432        C  0.60966597  0.78740801  0.41309863     0.24900
C433        C  0.62116899  0.81841576  0.42464302    -0.23100
C434        C  0.61018200  0.84565496  0.40206323     0.19800
F435        F  0.61562679  0.87645981  0.41431875    -0.13100
F436        F  0.57999801  0.86801616  0.34685253    -0.15400
F437        F  0.61715071  0.76065124  0.43546762    -0.15400
F438        F  0.57901899  0.75358230  0.36887075    -0.13100
C439        C  0.37050441  0.83270128  0.39118653     0.25000
C440        C  0.37122948  0.80790523  0.42059370    -0.23200
C441        C  0.39115125  0.78067299  0.41405212     0.19900
C442        C  0.41108446  0.77897143  0.37975378     0.24900
C443        C  0.41179739  0.80460408  0.35151069    -0.23100
C444        C  0.39075328  0.83113556  0.35695957     0.19800
F445        F  0.39151477  0.85653618  0.33064325    -0.13100
F446        F  0.35231701  0.85967833  0.39737404    -0.15400
F447        F  0.43115632  0.75311297  0.37523167    -0.15400
F448        F  0.39243646  0.75637212  0.44198758    -0.13100
C449        C  0.37141959  0.83481783  0.10496288     0.25000
C450        C  0.37568209  0.81446476  0.07072600    -0.23200
C451        C  0.39938565  0.78970413  0.07363738     0.19900
C452        C  0.42067582  0.78820882  0.10682147     0.24900
C453        C  0.41842983  0.81088647  0.13835666    -0.23100
C454        C  0.39340142  0.83389283  0.13741717     0.19800
F455        F  0.39000416  0.85536960  0.16831952    -0.13100
F456        F  0.34497994  0.85407725  0.10913003    -0.15400
F457        F  0.44368625  0.76461830  0.10816067    -0.15400
F458        F  0.40182884  0.76656967  0.04452896    -0.13100
C459        C  0.22661409  0.74990279  0.00903208     0.25000
C460        C  0.23529060  0.71731655  0.00241271    -0.23200
C461        C  0.27088564  0.71183002  0.48974437     0.19900
C462        C  0.29346490  0.73701031  0.48770278     0.24900
C463        C  0.28408631  0.76897926  0.49596210    -0.23100
C464        C  0.24998947  0.77460192  0.00575895     0.19800
F465        F  0.24148277  0.80554926  0.01458151    -0.13100
F466        F  0.19548589  0.75800789  0.01778397    -0.15400
F467        F  0.32492481  0.73004807  0.47906636    -0.15400
F468        F  0.28123678  0.68104702  0.48308260    -0.13100
C469        C  0.19898725  0.63937423  0.11022943     0.25000
C470        C  0.17363868  0.63832214  0.08141661    -0.23200
C471        C  0.14591494  0.61968410  0.09016257     0.19900
C472        C  0.14458693  0.60057179  0.12543577     0.24900
C473        C  0.17099487  0.59953105  0.15266163    -0.23100
C474        C  0.19770922  0.62004703  0.14561610     0.19800
F475        F  0.22363922  0.61933043  0.17126942    -0.13100
F476        F  0.22614947  0.65685215  0.10238154    -0.15400
F477        F  0.11848861  0.58111516  0.13155350    -0.15400
F478        F  0.12089628  0.61843611  0.06313009    -0.13100
C479        C  0.15338310  0.60588740  0.42208473     0.25000
C480        C  0.18296901  0.62238743  0.42949616    -0.23200
C481        C  0.21022132  0.61398230  0.40564028     0.19900
C482        C  0.20676265  0.59317086  0.37259079     0.24900
C483        C  0.17663989  0.57925934  0.36366242    -0.23100
C484        C  0.15018176  0.58494657  0.38909851     0.19800
F485        F  0.12130584  0.57009677  0.38199749    -0.13100
F486        F  0.12744791  0.60992790  0.44692673    -0.15400
F487        F  0.23313761  0.58572708  0.34981264    -0.15400
F488        F  0.24071093  0.62361415  0.41538444    -0.13100
C489        C  0.29033659  0.93833583  0.99135177     0.25000
C490        C  0.25792476  0.93571915  0.97907103    -0.23200
C491        C  0.24634669  0.90567062  0.46689180     0.19900
C492        C  0.26683304  0.87844399  0.46818764     0.24900
C493        C  0.29821115  0.88023850  0.98075263    -0.23100
C494        C  0.31059222  0.91116567  0.99099605     0.19800
F495        F  0.34229996  0.91520695  0.00128111    -0.13100
F496        F  0.30230175  0.96724066  0.00409081    -0.15400
F497        F  0.25443492  0.84916786  0.45786689    -0.15400
F498        F  0.21494172  0.90200679  0.45497723    -0.13100
C499        C  0.27350722  0.09262998  0.02970776     0.25000
C500        C  0.25783842  0.08098590  0.49138467    -0.23200
C501        C  0.26380844  0.09872623  0.45549067     0.19900
C502        C  0.28374787  0.12615862  0.45618600     0.24900
C503        C  0.29878031  0.13831197  0.99461363    -0.23100
C504        C  0.29296945  0.12063528  0.03042904     0.19800
F505        F  0.30682727  0.12992768  0.06608779    -0.13100
F506        F  0.26897355  0.07629765  0.06513399    -0.15400
F507        F  0.28783008  0.14313196  0.42111143    -0.15400
F508        F  0.24995750  0.09001909  0.41958255    -0.13100
C509        C  0.92881289  0.27736816  0.04105066     0.25000
C510        C  0.92419162  0.25061165  0.51637384    -0.23200
C511        C  0.90250307  0.25164246  0.48313078     0.19900
C512        C  0.87666308  0.27356066  0.48254864     0.24900
C513        C  0.87182579  0.29500239  0.51508625    -0.23100
C514        C  0.90348644  0.29991222  0.04157967     0.19800
F515        F  0.90585776  0.32549162  0.06693464    -0.13100
F516        F  0.95382030  0.28079281  0.06779763    -0.15400
F517        F  0.85672712  0.27450953  0.44950372    -0.15400
F518        F  0.90634131  0.23154303  0.45088711    -0.13100
C519        C  0.08990160  0.26372019  0.54399865     0.25000
C520        C  0.07157692  0.25532723  0.00268857    -0.23200
C521        C  0.06657897  0.28686937  0.01671948     0.19900
C522        C  0.09108755  0.31011580  0.01307663     0.24900
C523        C  0.12200094  0.30171308  0.99755777    -0.23100
C524        C  0.11696114  0.28403892  0.54152523     0.19800
F525        F  0.13708667  0.28633733  0.57425817    -0.13100
F526        F  0.08483335  0.24716997  0.57915615    -0.15400
F527        F  0.08419410  0.34099784  0.02425606    -0.15400
F528        F  0.03759625  0.29537505  0.03309200    -0.13100
C529        C  0.09603871  0.12440495  0.47517144     0.25000
C530        C  0.07274486  0.12083169  0.00670967    -0.23200
C531        C  0.07705442  0.09827312  0.03856495     0.19900
C532        C  0.10268487  0.07594257  0.03748099     0.24900
C533        C  0.12362407  0.07705872  0.50362732    -0.23100
C534        C  0.12070813  0.10112081  0.47332700     0.19800
F535        F  0.14215089  0.10249810  0.44212867    -0.13100
F536        F  0.09445456  0.14755830  0.44577077    -0.15400
F537        F  0.10546737  0.05361382  0.06775221    -0.15400
F538        F  0.05585934  0.09708298  0.07004153    -0.13100
C539        C  0.69948787  0.90406211  0.53649839     0.25000
C540        C  0.70474777  0.87847172  0.50927429    -0.23200
C541        C  0.73201857  0.88190791  0.97988228     0.19900
C542        C  0.75092263  0.90988623  0.97720879     0.24900
C543        C  0.74438267  0.93424314  0.50645130    -0.23100
C544        C  0.71949146  0.93158676  0.53554005     0.19800
F545        F  0.71370655  0.95617164  0.56188686    -0.13100
F546        F  0.67408564  0.90311846  0.56257557    -0.15400
F547        F  0.77629426  0.91053275  0.95100017    -0.15400
F548        F  0.73836608  0.85671958  0.95464033    -0.13100
C549        C  0.75801286  0.10961994  0.48172487     0.25000
C550        C  0.74546450  0.08303388  0.99523205    -0.23200
C551        C  0.71423461  0.08192801  0.01166878     0.19900
C552        C  0.69429061  0.10940108  0.01059709     0.24900
C553        C  0.70582546  0.13921277  0.99484637    -0.23100
C554        C  0.73809938  0.13720279  0.48075587     0.19800
F555        F  0.75052374  0.16523084  0.46594404    -0.13100
F556        F  0.78889767  0.11173449  0.46768446    -0.15400
F557        F  0.66342163  0.10646095  0.02439576    -0.15400
F558        F  0.70281997  0.05400456  0.02819023    -0.13100
C559        C  0.92160854  0.10661477  0.47169997     0.25000
C560        C  0.93370608  0.11817080  0.50922768    -0.23200
C561        C  0.91088239  0.11618262  0.04242464     0.19900
C562        C  0.88505794  0.09429154  0.04039685     0.24900
C563        C  0.88048713  0.07478624  0.00570099    -0.23100
C564        C  0.89624687  0.08412389  0.47041334     0.19800
F565        F  0.88540495  0.07404398  0.43348447    -0.13100
F566        F  0.93405369  0.11714911  0.43584927    -0.15400
F567        F  0.86407138  0.09284587  0.07207550    -0.15400
F568        F  0.91385881  0.13532956  0.07574252    -0.13100
C569        C  0.90211747  0.76637737  0.48358124     0.25000
C570        C  0.93008652  0.75900854  0.99597191    -0.23200
C571        C  0.93450147  0.72702761  0.00915782     0.19900
C572        C  0.90865758  0.70509350  0.00757716     0.24900
C573        C  0.87742105  0.71519575  0.99449301    -0.23100
C574        C  0.87619882  0.74456862  0.48243468     0.19800
F575        F  0.84682470  0.75539045  0.46942528    -0.13100
F576        F  0.89733282  0.79737262  0.47085424    -0.15400
F577        F  0.91421200  0.67391209  0.01905535    -0.15400
F578        F  0.96390702  0.71697436  0.02325916    -0.13100
C579        C  0.09296619  0.75472015  0.46477925     0.25000
C580        C  0.07523843  0.75897230  0.50087793    -0.23200
C581        C  0.07904091  0.74054762  0.03290406     0.19900
C582        C  0.10544837  0.71912683  0.03302924     0.24900
C583        C  0.12894456  0.71628564  0.49871500    -0.23100
C584        C  0.11962301  0.73391537  0.46387303     0.19800
F585        F  0.13657253  0.73118329  0.42871602    -0.13100
F586        F  0.08485265  0.77092149  0.43015640    -0.15400
F587        F  0.10982735  0.69869814  0.06506582    -0.15400
F588        F  0.05874394  0.74046701  0.06531434    -0.13100
C589        C  0.89559580  0.93241521  0.04064411     0.25000
C590        C  0.87891120  0.93680561  0.50720228    -0.23200
C591        C  0.89334191  0.92729845  0.47024338     0.19900
C592        C  0.91841838  0.90455962  0.46970976     0.24900
C593        C  0.92789426  0.89234124  0.00406376    -0.23100
C594        C  0.92075548  0.90951708  0.03998514     0.19800
F595        F  0.93857497  0.90482476  0.07438741    -0.13100
F596        F  0.89025139  0.94914152  0.07547411    -0.15400
F597        F  0.93145053  0.89667840  0.43319160    -0.15400
F598        F  0.88362627  0.94023219  0.43412158    -0.13100
C599        C  0.08563973  0.90190890  0.46433311     0.25000
C600        C  0.07210510  0.89253013  0.50198025    -0.23200
C601        C  0.08955769  0.90119797  0.03508245     0.19900
C602        C  0.11517730  0.92353658  0.03341903     0.24900
C603        C  0.12189906  0.94081549  0.99723592    -0.23100
C604        C  0.11037882  0.92494872  0.46249259     0.19800
F605        F  0.12251573  0.93288903  0.42545497    -0.13100
F606        F  0.07528665  0.88862842  0.42882316    -0.15400
F607        F  0.13360165  0.92782630  0.06734760    -0.15400
F608        F  0.08470542  0.88450473  0.07018802    -0.13100
O609        O  0.97033917  0.78952360  0.53564783    -0.73100
O610        O  0.03500426  0.85693524  0.53727239    -0.73100
O611        O  0.96869865  0.85511566  0.53841233    -0.73200
O612        O  0.03633784  0.79148758  0.53594114    -0.73200
O613        O  0.03389927  0.79520393  0.96562031    -0.73100
O614        O  0.96626287  0.85931871  0.96834814    -0.73100
O615        O  0.03216775  0.86049013  0.96751427    -0.73100
O616        O  0.96767793  0.79429986  0.96478627    -0.73200
Ni617      Ni  0.00258540  0.82321128  0.53931236     1.25400
Ni618      Ni  0.00001369  0.82736046  0.96420298     1.25400
C619        C  0.95893791  0.78029902  0.50117077     0.89100
C620        C  0.04360793  0.87065237  0.00138641     0.89000
C621        C  0.95696237  0.86638098  0.50508215     0.89100
C622        C  0.04554630  0.78420854  0.99926339     0.89200
O623        O  0.77660715  0.97598371  0.96730313    -0.73100
O624        O  0.84361000  0.04043490  0.96946278    -0.73100
O625        O  0.84172705  0.97515721  0.97041840    -0.73200
O626        O  0.77829332  0.04253830  0.96489384    -0.73200
O627        O  0.77710308  0.04095236  0.53605128    -0.73100
O628        O  0.84166225  0.97324665  0.54065326    -0.73100
O629        O  0.84282291  0.03877076  0.53895903    -0.73100
O630        O  0.77585973  0.97486029  0.53930802    -0.73200
Ni631      Ni  0.80994640  0.00853353  0.96559174     1.25400
Ni632      Ni  0.80918191  0.00703903  0.54117156     1.25400
C633        C  0.76558115  0.96512909  0.00115094     0.89100
C634        C  0.85515014  0.04856411  0.50546226     0.89000
C635        C  0.85157637  0.96431993  0.00483121     0.89100
C636        C  0.76836245  0.05210261  0.50115630     0.89200
O637        O  0.96695924  0.21947283  0.97568790    -0.73100
O638        O  0.03416086  0.15527691  0.97384404    -0.73100
O639        O  0.96872161  0.15449721  0.97596162    -0.73200
O640        O  0.03321612  0.22034668  0.97214012    -0.73200
O641        O  0.03299257  0.22313227  0.54523152    -0.73100
O642        O  0.97015618  0.15414141  0.54460846    -0.73100
O643        O  0.03597340  0.15745170  0.54326597    -0.73100
O644        O  0.96665040  0.21942269  0.54794956    -0.73200
Ni645      Ni  0.00069519  0.18745580  0.97204269     1.25400
Ni646      Ni  0.00155670  0.18855490  0.54771409     1.25400
C647        C  0.95674120  0.22979157  0.01008891     0.89100
C648        C  0.04706818  0.14844484  0.50878222     0.89000
C649        C  0.95848988  0.14382533  0.01008412     0.89100
C650        C  0.04252520  0.23525774  0.51127682     0.89200
O651        O  0.22435844  0.04268510  0.95894496    -0.73100
O652        O  0.15739200  0.97735165  0.96123825    -0.73100
O653        O  0.15914024  0.04252278  0.96580494    -0.73200
O654        O  0.22261846  0.97620245  0.95257686    -0.73200
O655        O  0.22794805  0.97382764  0.52030524    -0.73100
O656        O  0.16170004  0.03901905  0.53230276    -0.73100
O657        O  0.16260005  0.97349162  0.52874324    -0.73100
O658        O  0.22709718  0.03982926  0.52518101    -0.73200
Ni659      Ni  0.19087018  0.00980740  0.95724619     1.25400
Ni660      Ni  0.19514174  0.00641790  0.52898912     1.25400
C661        C  0.23657743  0.05298387  0.99260602     0.89100
C662        C  0.14852222  0.96430486  0.49598919     0.89000
C663        C  0.15019789  0.05120415  0.00130783     0.89100
C664        C  0.23483170  0.96341892  0.48462208     0.89200
C665        C  0.18082388  0.64770170  0.96551689     0.87800
C666        C  0.15224534  0.67158987  0.96470303    -0.52400
C667        C  0.15140594  0.69229620  0.99690982     0.10800
C668        C  0.18389700  0.68775636  0.52497074     0.21700
C669        C  0.21025037  0.67036794  0.96800365    -0.53100
C670        C  0.21367712  0.69167193  0.49689838     0.10900
C671        C  0.17891645  0.63086398  0.00695107    -0.52700
C672        C  0.18373212  0.65169743  0.53751713     0.11400
H673        H  0.13456434  0.67288394  0.94012268     0.16000
H674        H  0.18349581  0.70464116  0.55116645     0.01700
H675        H  0.22768576  0.67292605  0.94363506     0.16300
H676        H  0.18368593  0.60464984  0.50958897     0.16100
C677        C  0.35560250  0.81893891  0.53469411     0.87800
C678        C  0.33754019  0.85107146  0.52727675    -0.52400
C679        C  0.31723714  0.85033631  0.99121845     0.10800
C680        C  0.31749804  0.81814025  0.96708289     0.21700
C681        C  0.32809135  0.79406230  0.53504772    -0.53100
C682        C  0.30827966  0.79173395  0.99880552     0.10900
C683        C  0.37435986  0.81251972  0.49550385    -0.52700
C684        C  0.35395137  0.81227651  0.95826593     0.11400
H685        H  0.33625601  0.87042142  0.54926954     0.16000
H686        H  0.30222863  0.81808972  0.93919185     0.01700
H687        H  0.32378271  0.77746704  0.56018393     0.16300
H688        H  0.39913181  0.80950596  0.99102980     0.16100
N689        N  0.49622102  0.81035250  0.80811180    -0.35300
N690        N  0.54989051  0.80651706  0.74807574    -0.55800
N691        N  0.50310626  0.80001380  0.68502719    -0.35200
N692        N  0.44956080  0.80654533  0.74529149    -0.55800
C693        C  0.52193336  0.82003542  0.83050417     0.28300
C694        C  0.46907221  0.81820049  0.82914935     0.28300
C695        C  0.53031029  0.80532438  0.66279977     0.28300
C696        C  0.47742788  0.80778485  0.66113740     0.28300
C697        C  0.56684073  0.80438510  0.78316453     0.37000
C698        C  0.57061564  0.79847813  0.71789690     0.37000
C699        C  0.42883088  0.80328302  0.77681503     0.37000
C700        C  0.43245954  0.80000697  0.71133418     0.37000
C701        C  0.51103412  0.83428300  0.86618485    -0.20500
C702        C  0.47766700  0.83299734  0.86535968    -0.20500
C703        C  0.52170211  0.81611008  0.62426623    -0.20500
C704        C  0.48841713  0.81758787  0.62315897    -0.20500
C705        C  0.59861893  0.79515618  0.77527032    -0.21600
C706        C  0.60095367  0.79126337  0.73385105    -0.21600
C707        C  0.39829783  0.79466085  0.76288412    -0.21600
C708        C  0.40052934  0.79277307  0.72122279    -0.21600
C709        C  0.55484618  0.81328887  0.82173499    -0.16900
C710        C  0.43689553  0.81054133  0.81747605    -0.16900
C711        C  0.44426682  0.80438538  0.67153405    -0.16900
C712        C  0.56272059  0.80008404  0.67607376    -0.16900
H713        H  0.52562121  0.84389649  0.89081790     0.16000
H714        H  0.46159713  0.84162806  0.88892169     0.16000
H715        H  0.53771557  0.82250687  0.59951643     0.16000
H716        H  0.47398277  0.82493692  0.59710219     0.16000
H717        H  0.61821439  0.79206110  0.79702658     0.14300
H718        H  0.62258919  0.78449666  0.71736444     0.14300
H719        H  0.37657182  0.79104874  0.78070767     0.14300
H720        H  0.38075043  0.78741333  0.70050695     0.14300
H721        H  0.49756434  0.79535531  0.78284838     0.27500
H722        H  0.50177698  0.78865883  0.71325849     0.27500
C723        C  0.64203854  0.82454565  0.96078090     0.87800
C724        C  0.66231946  0.85525238  0.96737954    -0.52400
C725        C  0.68138815  0.85461584  0.00117355     0.10800
C726        C  0.68090959  0.81941265  0.52665724     0.21700
C727        C  0.66760174  0.79741959  0.96068063    -0.53100
C728        C  0.68693444  0.79611732  0.99456463     0.10900
C729        C  0.62341953  0.81986663  0.00060574    -0.52700
C730        C  0.64472784  0.81152547  0.53519392     0.11400
H731        H  0.66490136  0.87504416  0.94621284     0.16000
H732        H  0.69663235  0.81886533  0.55418303     0.01700
H733        H  0.67062626  0.78101891  0.93519315     0.16300
H734        H  0.59716319  0.81739414  0.00161910     0.16100
C735        C  0.81758630  0.65367333  0.54121502     0.87800
C736        C  0.84941724  0.67265771  0.53717416    -0.52400
C737        C  0.85191186  0.69093954  0.50265834     0.10800
C738        C  0.81754972  0.69171801  0.97516205     0.21700
C739        C  0.79182647  0.68052671  0.53902408    -0.53100
C740        C  0.78963067  0.70035007  0.00477965     0.10900
C741        C  0.81391995  0.63481663  0.50144145    -0.52700
C742        C  0.81326899  0.65508512  0.96679977     0.11400
H743        H  0.86702065  0.67490603  0.56157118     0.16000
H744        H  0.81792251  0.70658169  0.94699452     0.01700
H745        H  0.77390440  0.68472086  0.56255320     0.16300
H746        H  0.80978732  0.61040721  0.00034553     0.16100
C747        C  0.36186331  0.20393474  0.96603776     0.87800
C748        C  0.34292356  0.17181054  0.96390015    -0.52400
C749        C  0.32144080  0.16448944  0.49246828     0.10800
C750        C  0.32079316  0.19303168  0.52285670     0.21700
C751        C  0.33476422  0.22952160  0.96717526    -0.53100
C752        C  0.31388967  0.22266050  0.49484560     0.10900
C753        C  0.37704331  0.20439291  0.00842103    -0.52700
C754        C  0.35654615  0.19675343  0.53772534     0.11400
H755        H  0.34622777  0.15439904  0.93958514     0.16000
H756        H  0.30292054  0.18968734  0.54762107     0.01700
H757        H  0.33179404  0.24839013  0.94465511     0.16300
H758        H  0.40410967  0.20273684  0.51201949     0.16100
C759        C  0.18694102  0.36683600  0.53047990     0.87800
C760        C  0.15609577  0.34624114  0.53445368    -0.52400
C761        C  0.15159025  0.32405761  0.50438992     0.10800
C762        C  0.17908661  0.32667717  0.97067066     0.21700
C763        C  0.21418842  0.34144547  0.52807471    -0.53100
C764        C  0.21011971  0.31834853  0.49879538     0.10900
C765        C  0.18513991  0.38151819  0.48785465    -0.52700
C766        C  0.18100628  0.36266428  0.95693245     0.11400
H767        H  0.13913382  0.34887685  0.55944020     0.16000
H768        H  0.17725168  0.30981682  0.94468255     0.01700
H769        H  0.23450006  0.34003599  0.54865327     0.16300
H770        H  0.18613089  0.40748364  0.48234165     0.16100
N771        N  0.17871426  0.50241956  0.80879256    -0.35300
N772        N  0.18206170  0.45775663  0.74214406    -0.55800
N773        N  0.18116953  0.51346182  0.68550439    -0.35200
N774        N  0.18158223  0.55806343  0.75224967    -0.55800
C775        C  0.18391188  0.47436563  0.82949215     0.28300
C776        C  0.18419839  0.52703129  0.83498282     0.28300
C777        C  0.18829216  0.48892885  0.65996898     0.28300
C778        C  0.18768312  0.54144649  0.66548756     0.28300
C779        C  0.17709415  0.43580438  0.77217381     0.37000
C780        C  0.17831160  0.44186349  0.70661652     0.37000
C781        C  0.17701239  0.57421164  0.78733975     0.37000
C782        C  0.17815853  0.58002729  0.72188879     0.37000
C783        C  0.19245318  0.48133601  0.86936131    -0.20500
C784        C  0.19255858  0.51445813  0.87285856    -0.20500
C785        C  0.19926047  0.50145586  0.62327548    -0.20500
C786        C  0.19877331  0.53455629  0.62672361    -0.20500
C787        C  0.17062996  0.40566441  0.75568524    -0.21600
C788        C  0.17139534  0.40948685  0.71409881    -0.21600
C789        C  0.17130232  0.60678197  0.77926198    -0.21600
C790        C  0.17195388  0.61043188  0.73769781    -0.21600
C791        C  0.17951879  0.44255485  0.81421695    -0.16900
C792        C  0.18002986  0.56049649  0.82663336    -0.16900
C793        C  0.18220752  0.57311006  0.68025974    -0.16900
C794        C  0.18317005  0.45559881  0.66761208    -0.16900
H795        H  0.19782322  0.46431799  0.89362024     0.16000
H796        H  0.19789942  0.52771441  0.90043658     0.16000
H797        H  0.20651328  0.48814499  0.59649672     0.16000
H798        H  0.20562930  0.55159918  0.60319683     0.16000
H799        H  0.16602682  0.38328137  0.77189963     0.14300
H800        H  0.16758775  0.39053427  0.69190336     0.14300
H801        H  0.16740049  0.62598064  0.80105531     0.14300
H802        H  0.16866038  0.63289581  0.72107626     0.14300
H803        H  0.16840168  0.50476280  0.78013531     0.27500
H804        H  0.16884960  0.51114672  0.71276185     0.27500
N805        N  0.49585334  0.19870291  0.68644376    -0.35300
N806        N  0.45168240  0.20583906  0.75337618    -0.55800
N807        N  0.50815967  0.20323812  0.80944826    -0.35200
N808        N  0.55217474  0.19986737  0.74243150    -0.55800
C809        C  0.46772447  0.20471662  0.66611817     0.28300
C810        C  0.52045980  0.20391120  0.66011335     0.28300
C811        C  0.48420373  0.21192418  0.83515390     0.28300
C812        C  0.53675206  0.20788548  0.82922779     0.28300
C813        C  0.42944325  0.19963496  0.72383510     0.37000
C814        C  0.43614534  0.20302432  0.78933419     0.37000
C815        C  0.56766669  0.19418171  0.70713292     0.37000
C816        C  0.57417158  0.19501985  0.77259104     0.37000
C817        C  0.47459795  0.21364834  0.62638708    -0.20500
C818        C  0.50779963  0.21318524  0.62260905    -0.20500
C819        C  0.49770298  0.22216742  0.87169392    -0.20500
C820        C  0.53080254  0.21957941  0.86797272    -0.20500
C821        C  0.39946997  0.19351465  0.74105532    -0.21600
C822        C  0.40367606  0.19574420  0.78254874    -0.21600
C823        C  0.59985207  0.18606267  0.71486093    -0.21600
C824        C  0.60393117  0.18650550  0.75641382    -0.21600
C825        C  0.43591562  0.20033961  0.68154618    -0.16900
C826        C  0.55392512  0.19861283  0.66798593    -0.16900
C827        C  0.56799929  0.20007358  0.81430087    -0.16900
C828        C  0.45049148  0.20800104  0.82814511    -0.16900
H829        H  0.45743975  0.21966374  0.60245207     0.16000
H830        H  0.52107792  0.21864329  0.59510376     0.16000
H831        H  0.48499013  0.23008915  0.89862965     0.16000
H832        H  0.54844723  0.22528224  0.89139532     0.16000
H833        H  0.37697121  0.18800971  0.72539473     0.14300
H834        H  0.38497606  0.19227204  0.80515465     0.14300
H835        H  0.61853803  0.18073436  0.69282936     0.14300
H836        H  0.62630166  0.18164560  0.77277759     0.14300
H837        H  0.49803958  0.18791148  0.71489405     0.27500
H838        H  0.50483357  0.19091091  0.78229857     0.27500
C839        C  0.64489899  0.20036036  0.53249641     0.87800
C840        C  0.66591060  0.16962197  0.53341518    -0.52400
C841        C  0.68605943  0.16579513  0.50082509     0.10800
C842        C  0.68501386  0.19801944  0.96815297     0.21700
C843        C  0.67028961  0.22747864  0.53001061    -0.53100
C844        C  0.69096633  0.22492951  0.49804628     0.10900
C845        C  0.62808776  0.20008674  0.49078033    -0.52700
C846        C  0.64877527  0.20127395  0.95639854     0.11400
H847        H  0.66511793  0.15247786  0.55850701     0.16000
H848        H  0.70094218  0.19514589  0.94134116     0.01700
H849        H  0.67416612  0.24593401  0.55276881     0.16300
H850        H  0.60186972  0.20125019  0.48708962     0.16100
C851        C  0.82824011  0.36708415  0.96866486     0.87800
C852        C  0.85755047  0.34470614  0.97629271    -0.52400
C853        C  0.85418041  0.32437499  0.00870400     0.10800
C854        C  0.81747921  0.32802175  0.53305950     0.21700
C855        C  0.79976177  0.34345174  0.96516373    -0.53100
C856        C  0.79557540  0.32337825  0.99768527     0.10900
C857        C  0.82330592  0.38468793  0.00918903    -0.52700
C858        C  0.81659826  0.36471348  0.54298624     0.11400
H859        H  0.87842023  0.34218250  0.95695199     0.16000
H860        H  0.81482060  0.31206525  0.56009304     0.01700
H861        H  0.78464275  0.34213551  0.93802538     0.16300
H862        H  0.82282087  0.41094314  0.01161768     0.16100
N863        N  0.80499531  0.50647653  0.69257033    -0.35300
N864        N  0.81478350  0.45979670  0.75601965    -0.55800
N865        N  0.81471039  0.51328943  0.81627976    -0.35200
N866        N  0.80874722  0.56004640  0.75290121    -0.55800
C867        C  0.81037832  0.47954383  0.66990403     0.28300
C868        C  0.80914435  0.53239524  0.66788321     0.28300
C869        C  0.82454170  0.48804609  0.83948563     0.28300
C870        C  0.82045346  0.54066719  0.83789524     0.28300
C871        C  0.80885322  0.43873313  0.72539290     0.37000
C872        C  0.81385740  0.44244746  0.79083111     0.37000
C873        C  0.80254365  0.57733272  0.71886820     0.37000
C874        C  0.80596690  0.58076796  0.78455102     0.37000
C875        C  0.81715962  0.48849990  0.63020934    -0.20500
C876        C  0.81639708  0.52172807  0.62890146    -0.20500
C877        C  0.83653887  0.49946077  0.87631960    -0.20500
C878        C  0.83384381  0.53262532  0.87535250    -0.20500
C879        C  0.80464808  0.40775800  0.74070951    -0.21600
C880        C  0.80772099  0.41010388  0.78224329    -0.21600
C881        C  0.79619236  0.60937455  0.72889898    -0.21600
C882        C  0.79817842  0.61148742  0.77057877    -0.21600
C883        C  0.80874162  0.44700409  0.68369172    -0.16900
C884        C  0.80544957  0.56545398  0.67874864    -0.16900
C885        C  0.81252728  0.57260789  0.82554518    -0.16900
C886        C  0.82037521  0.45488499  0.83004778    -0.16900
H887        H  0.82233793  0.47275809  0.60477779     0.16000
H888        H  0.82064608  0.53632708  0.60204642     0.16000
H889        H  0.84577124  0.48531005  0.90165673     0.16000
H890        H  0.84076243  0.54891552  0.89962477     0.16000
H891        H  0.79996407  0.38581005  0.72373919     0.14300
H892        H  0.80596385  0.39019884  0.80364530     0.14300
H893        H  0.79112096  0.62927283  0.70827652     0.14300
H894        H  0.79501870  0.63324284  0.78843211     0.14300
H895        H  0.79611908  0.50728222  0.72190249     0.27500
H896        H  0.80113551  0.51137372  0.78984460     0.27500
C897        C  0.83970424  0.38370742  0.60953976     0.25000
C898        C  0.81258741  0.37931255  0.58398804    -0.23200
C899        C  0.78324804  0.39481397  0.59391758     0.19900
C900        C  0.78143043  0.41530530  0.62784376     0.24900
C901        C  0.80892163  0.42066262  0.65246934    -0.23100
C902        C  0.83779502  0.40389252  0.64375464     0.19800
F903        F  0.86481116  0.40894061  0.66670803    -0.13100
F904        F  0.86881651  0.37080458  0.59940460    -0.15400
F905        F  0.75331769  0.43132507  0.63548455    -0.15400
F906        F  0.75691364  0.39167365  0.56921729    -0.13100
C907        C  0.85159453  0.41471768  0.87118098     0.25000
C908        C  0.82280202  0.43179144  0.86416713    -0.23200
C909        C  0.79694050  0.42875615  0.89116036     0.19900
C910        C  0.79972132  0.40862241  0.92501305     0.24900
C911        C  0.82837041  0.39041263  0.93235570    -0.23100
C912        C  0.85461898  0.39427603  0.90490343     0.19800
F913        F  0.88364501  0.37948484  0.91005697    -0.13100
F914        F  0.87711182  0.41838833  0.84557580    -0.15400
F915        F  0.77396707  0.40656353  0.95055663    -0.15400
F916        F  0.76894941  0.44548439  0.88467504    -0.13100
C917        C  0.71416314  0.28292216  0.97704462     0.25000
C918        C  0.71766463  0.24863828  0.49378307    -0.23200
C919        C  0.74888175  0.24134845  0.50869455     0.19900
C920        C  0.77261728  0.26560867  0.51157275     0.24900
C921        C  0.76525702  0.29775792  0.50042893    -0.23100
C922        C  0.73826221  0.30654309  0.98119635     0.19800
F923        F  0.73084860  0.33760120  0.97090195    -0.13100
F924        F  0.68435392  0.29168969  0.96291722    -0.15400
F925        F  0.80283346  0.25749269  0.52477602    -0.15400
F926        F  0.75588378  0.21112425  0.52252508    -0.13100
C927        C  0.59729513  0.17009792  0.86975846     0.25000
C928        C  0.59506939  0.19761408  0.84459648    -0.23200
C929        C  0.61480864  0.22457638  0.85314330     0.19900
C930        C  0.63473971  0.22482097  0.88800676     0.24900
C931        C  0.63512328  0.19813828  0.91469190    -0.23100
C932        C  0.61705838  0.17039977  0.90458597     0.19800
F933        F  0.61691893  0.14438839  0.93000050    -0.13100
F934        F  0.57850756  0.14378427  0.86207897    -0.15400
F935        F  0.65156246  0.25204907  0.89747602    -0.15400
F936        F  0.61278262  0.25155305  0.82952138    -0.13100
C937        C  0.58006200  0.17239948  0.60808640     0.25000
C938        C  0.57633431  0.19952159  0.63300032    -0.23200
C939        C  0.59303623  0.22808411  0.62390692     0.19900
C940        C  0.61436640  0.22934783  0.59107865     0.24900
C941        C  0.62029623  0.20136611  0.56729516    -0.23100
C942        C  0.60142238  0.17339111  0.57527594     0.19800
F943        F  0.60363128  0.14679560  0.55121062    -0.13100
F944        F  0.56298555  0.14492491  0.61562817    -0.15400
F945        F  0.62704319  0.25866573  0.58169427    -0.15400
F946        F  0.58798416  0.25513187  0.64643480    -0.13100
C947        C  0.20420112  0.39555649  0.85326150     0.25000
C948        C  0.17727862  0.41557263  0.84465245    -0.23200
C949        C  0.14984456  0.41355747  0.86974499     0.19900
C950        C  0.15008287  0.39365236  0.90432464     0.24900
C951        C  0.17774313  0.37526537  0.91460502    -0.23100
C952        C  0.20448082  0.37561208  0.88813605     0.16600
F953        F  0.23188432  0.35896934  0.89795915    -0.13100
F954        F  0.23114459  0.39732995  0.82975658    -0.15400
F955        F  0.12419625  0.39429178  0.92972323    -0.15400
F956        F  0.12372117  0.43286317  0.86241109    -0.13100
C957        C  0.16105201  0.41234582  0.57035633     0.25000
C958        C  0.18867118  0.39253292  0.56401639    -0.23200
C959        C  0.21572641  0.39679828  0.59037562     0.19900
C960        C  0.21328145  0.41648257  0.62462340     0.24900
C961        C  0.18473319  0.43364853  0.63229165    -0.23100
C962        C  0.15906396  0.43245466  0.60428667     0.19800
F963        F  0.13203805  0.45075255  0.60994755    -0.13100
F964        F  0.13550417  0.41167130  0.54403534    -0.15400
F965        F  0.23928954  0.41963747  0.64987752    -0.15400
F966        F  0.24535056  0.38416553  0.58256525    -0.13100
C967        C  0.26698507  0.25604029  0.96180053     0.25000
C968        C  0.28386768  0.24329203  0.49599964    -0.23200
C969        C  0.27140066  0.25423178  0.53309862     0.19900
C970        C  0.24569244  0.27646488  0.53385560     0.24900
C971        C  0.23252267  0.28955975  0.49739576    -0.23100
C972        C  0.24258701  0.27975334  0.96208548     0.19800
F973        F  0.23101702  0.29104698  0.92601667    -0.13100
F974        F  0.27590577  0.24350991  0.92539441    -0.15400
F975        F  0.23392276  0.28536399  0.57068218    -0.15400
F976        F  0.28491424  0.24462285  0.56886996    -0.13100
C977        C  0.36633548  0.21956793  0.60799977     0.25000
C978        C  0.36897042  0.19370657  0.58037094    -0.23200
C979        C  0.39016544  0.16797289  0.58998930     0.19900
C980        C  0.40982772  0.16902925  0.62488354     0.24900
C981        C  0.40899965  0.19594205  0.65100439    -0.23100
C982        C  0.38610196  0.22062256  0.64316165     0.19800
F983        F  0.38481951  0.24700428  0.66764547    -0.13100
F984        F  0.34700121  0.24526519  0.59901856    -0.15400
F985        F  0.43171400  0.14490820  0.63150049    -0.15400
F986        F  0.39379228  0.14296562  0.56364750    -0.13100
C987        C  0.42737596  0.18048713  0.88911753     0.25000
C988        C  0.42914051  0.20805962  0.86431063    -0.23200
C989        C  0.41258596  0.23620817  0.87567874     0.19900
C990        C  0.39243776  0.23611195  0.90982411     0.24900
C991        C  0.38732744  0.20714840  0.93228735    -0.23100
C992        C  0.40720668  0.18018081  0.92312055     0.19800
F993        F  0.40698980  0.15325494  0.94699204    -0.13100
F994        F  0.44525126  0.15377800  0.88027046    -0.15400
F995        F  0.38022290  0.26497933  0.92198978    -0.15400
F996        F  0.41671727  0.26409008  0.85427888    -0.13100
C997        C  0.78314619  0.62239415  0.91495909     0.25000
C998        C  0.81127084  0.63960821  0.92608676    -0.23200
C999        C  0.83910585  0.63691634  0.90175402     0.19900
C1000       C  0.83915088  0.61639254  0.86767675     0.24900
C1001       C  0.81133965  0.59829232  0.85749786    -0.23100
C1002       C  0.78317268  0.60198740  0.88095517     0.19800
F1003       F  0.75617368  0.58449090  0.87205084    -0.13100
F1004       F  0.75609195  0.62418515  0.93827473    -0.15400
F1005       F  0.86689225  0.61261398  0.84609587    -0.15400
F1006       F  0.86695202  0.65217351  0.91283706    -0.13100
C1007       C  0.78382246  0.61994666  0.59022610     0.25000
C1008       C  0.81473561  0.63144636  0.57828475    -0.23200
C1009       C  0.84241674  0.61916611  0.59907616     0.19900
C1010       C  0.83892733  0.59928245  0.63305261     0.24900
C1011       C  0.80811097  0.58950215  0.64565879    -0.23100
C1012       C  0.78059144  0.59950873  0.62390612     0.19800
F1013       F  0.75071744  0.58865152  0.63462015    -0.13100
F1014       F  0.75672711  0.62743923  0.56841237    -0.15400
F1015       F  0.86586021  0.58786220  0.65240799    -0.15400
F1016       F  0.87298607  0.62364075  0.58506418    -0.13100
C1017       C  0.74868331  0.77943457  0.51182972     0.25000
C1018       C  0.71353339  0.77170728  0.99822448    -0.23200
C1019       C  0.70769820  0.73914514  0.98761703     0.19900
C1020       C  0.73297815  0.71646880  0.98781212     0.24900
C1021       C  0.76464247  0.72574431  0.99846265    -0.23100
C1022       C  0.77397867  0.75654503  0.51303865     0.19800
F1023       F  0.80280901  0.76471577  0.53034355    -0.13100
F1024       F  0.75436264  0.80992963  0.52543095    -0.15400
F1025       F  0.72636258  0.68505011  0.97888199    -0.15400
F1026       F  0.67722079  0.72900356  0.97819304    -0.13100
C1027       C  0.61342828  0.82268408  0.64283283     0.25000
C1028       C  0.58901810  0.79878688  0.64455016    -0.23200
C1029       C  0.58733970  0.77580383  0.61309144     0.19900
C1030       C  0.60752735  0.77838845  0.57907541     0.24900
C1031       C  0.63001126  0.80398860  0.57564793    -0.23100
C1032       C  0.63394365  0.82505187  0.60884377     0.19800
F1033       F  0.65577768  0.84956084  0.60704577    -0.13100
F1034       F  0.61586575  0.84521045  0.67267195    -0.15400
F1035       F  0.60402447  0.75665806  0.54842163    -0.15400
F1036       F  0.56465989  0.75195976  0.61414938    -0.13100
C1037       C  0.59370879  0.84558438  0.86260495     0.25000
C1038       C  0.57819212  0.81612194  0.85551193    -0.23200
C1039       C  0.58268903  0.79021348  0.88237647     0.19900
C1040       C  0.60314792  0.79353712  0.91597920     0.24900
C1041       C  0.61958344  0.82303954  0.92355966    -0.23100
C1042       C  0.61368108  0.84944170  0.89656819     0.19800
F1043       F  0.62504179  0.87969425  0.90308553    -0.13100
F1044       F  0.58837068  0.87117774  0.83731875    -0.15400
F1045       F  0.60657584  0.76784106  0.94159608    -0.15400
F1046       F  0.56680780  0.76181429  0.87626394    -0.13100
C1047       C  0.37072017  0.83686491  0.89139820     0.25000
C1048       C  0.36914415  0.80972795  0.91737259    -0.23200
C1049       C  0.38744635  0.78201648  0.90774177     0.19900
C1050       C  0.40816109  0.78194617  0.87406668     0.24900
C1051       C  0.41124397  0.80964927  0.84949341    -0.23100
C1052       C  0.39176441  0.83688712  0.85776524     0.19800
F1053       F  0.39446529  0.86403997  0.83461125    -0.13100
F1054       F  0.35373974  0.86413022  0.90030919    -0.15400
F1055       F  0.42637505  0.75524165  0.86636641    -0.15400
F1056       F  0.38630122  0.75544259  0.93215214    -0.13100
C1057       C  0.38980150  0.84335994  0.59332429     0.25000
C1058       C  0.37790282  0.81613625  0.57175678    -0.23200
C1059       C  0.38955430  0.78504230  0.58310539     0.19900
C1060       C  0.41013191  0.78112539  0.61650290     0.24900
C1061       C  0.42024979  0.80811276  0.63859875    -0.23100
C1062       C  0.41014832  0.83914915  0.62694336     0.19800
F1063       F  0.42156362  0.86557204  0.64695339    -0.13100
F1064       F  0.38461139  0.87415977  0.58048741    -0.15400
F1065       F  0.42092969  0.75105794  0.62672743    -0.15400
F1066       F  0.38184440  0.75835065  0.56102470    -0.13100
C1067       C  0.22898420  0.75021836  0.50866808     0.25000
C1068       C  0.23818860  0.71816154  0.49954426    -0.23200
C1069       C  0.26785710  0.71009705  0.99279317     0.19900
C1070       C  0.29084128  0.73475826  0.98874132     0.24900
C1071       C  0.28215936  0.76722834  0.99492619    -0.23100
C1072       C  0.25191255  0.77532522  0.50742051     0.19800
F1073       F  0.24298294  0.80560789  0.51882152    -0.13100
F1074       F  0.19777274  0.75749473  0.51803321    -0.15400
F1075       F  0.32203773  0.72684429  0.97992752    -0.15400
F1076       F  0.27761692  0.67891612  0.98777055    -0.13100
C1077       C  0.20891796  0.63696444  0.60442601     0.25000
C1078       C  0.18116513  0.63916384  0.57955014    -0.23200
C1079       C  0.15261324  0.62314925  0.59131410     0.19900
C1080       C  0.15234119  0.60363847  0.62616314     0.24900
C1081       C  0.18062361  0.59980628  0.64974745    -0.23100
C1082       C  0.20865652  0.61737043  0.63942117     0.19800
F1083       F  0.23645161  0.61332347  0.66124386    -0.13100
F1084       F  0.23701256  0.65137128  0.59281142    -0.15400
F1085       F  0.12521915  0.58644398  0.63521585    -0.15400
F1086       F  0.12571651  0.62449115  0.56726520    -0.13100
C1087       C  0.15156351  0.61014796  0.91579135     0.25000
C1088       C  0.18099976  0.62376224  0.93011761    -0.23200
C1089       C  0.21032079  0.61337177  0.91189511     0.19900
C1090       C  0.20972718  0.59396102  0.87729479     0.24900
C1091       C  0.18020529  0.58272854  0.86169379    -0.23100
C1092       C  0.15120440  0.59031215  0.88147137     0.19800
F1093       F  0.12257973  0.57813587  0.86770989    -0.13100
F1094       F  0.12311125  0.61536984  0.93539439    -0.15400
F1095       F  0.23813139  0.58511277  0.85968378    -0.15400
F1096       F  0.23974503  0.62001942  0.92860294    -0.13100
C1097       C  0.29018159  0.93944892  0.49153345     0.25000
C1098       C  0.25756939  0.93601926  0.48022951    -0.23200
C1099       C  0.24646338  0.90601490  0.96393748     0.19900
C1100       C  0.26630898  0.87833663  0.96517017     0.24900
C1101       C  0.29901989  0.88130746  0.48246397    -0.23100
C1102       C  0.31089173  0.91255248  0.49186896     0.19800
F1103       F  0.34252176  0.91701468  0.50230949    -0.13100
F1104       F  0.30186962  0.96885109  0.50278633    -0.15400
F1105       F  0.25350240  0.84958765  0.95339523    -0.15400
F1106       F  0.21537014  0.90336464  0.95037674    -0.13100
C1107       C  0.27242275  0.09175808  0.52801634     0.25000
C1108       C  0.25906124  0.08164734  0.99304928    -0.23200
C1109       C  0.26470981  0.09976658  0.95732991     0.19900
C1110       C  0.28409719  0.12766248  0.95816578     0.24900
C1111       C  0.29862087  0.13649191  0.49264332    -0.23100
C1112       C  0.29249469  0.11918223  0.52855533     0.19800
F1113       F  0.30670018  0.12821030  0.56410806    -0.13100
F1114       F  0.26748393  0.07576111  0.56359459    -0.15400
F1115       F  0.28772189  0.14484049  0.92317446    -0.15400
F1116       F  0.25099134  0.09100368  0.92137523    -0.13100
C1117       C  0.91758327  0.27010449  0.55056747     0.25000
C1118       C  0.92934512  0.25278266  0.01159776    -0.23200
C1119       C  0.90330355  0.25017855  0.98397198     0.19900
C1120       C  0.87745894  0.27214889  0.98544050     0.24900
C1121       C  0.87745395  0.29737288  0.01406797    -0.23100
C1122       C  0.89151119  0.29207948  0.54988145     0.19800
F1123       F  0.88662332  0.31156755  0.58235075    -0.13100
F1124       F  0.93715752  0.26906470  0.58391677    -0.15400
F1125       F  0.85316818  0.26988684  0.95748068    -0.15400
F1126       F  0.90288239  0.22640928  0.95551604    -0.13100
C1127       C  0.10131191  0.24726754  0.98461921     0.25000
C1128       C  0.06899532  0.25984987  0.51031956    -0.23200
C1129       C  0.07534329  0.27791073  0.47458660     0.19900
C1130       C  0.10254287  0.29827403  0.47222118     0.24900
C1131       C  0.12372895  0.30126383  0.50553335    -0.23100
C1132       C  0.12657341  0.26995653  0.98285660     0.19800
F1133       F  0.15575510  0.26012739  0.96845655    -0.13100
F1134       F  0.10627353  0.21694731  0.96995146    -0.15400
F1135       F  0.10761695  0.31580936  0.43781677    -0.15400
F1136       F  0.05504346  0.27622323  0.44197324    -0.13100
C1137       C  0.09459297  0.12081956  0.97406487     0.25000
C1138       C  0.07369271  0.12421208  0.50737643    -0.23200
C1139       C  0.07687146  0.10042214  0.53802887     0.19900
C1140       C  0.10158568  0.07709078  0.53616505     0.24900
C1141       C  0.12438366  0.07589725  0.00456919    -0.23100
C1142       C  0.12013997  0.09870559  0.97305295     0.19800
F1143       F  0.14103248  0.09995480  0.94126367    -0.13100
F1144       F  0.09171474  0.14275420  0.94335881    -0.15400
F1145       F  0.10311366  0.05376212  0.56535027    -0.15400
F1146       F  0.05531846  0.09895626  0.56909382    -0.13100
C1147       C  0.69836397  0.90752052  0.03081824     0.25000
C1148       C  0.70561201  0.88048947  0.00672370    -0.23200
C1149       C  0.73013553  0.88079774  0.48104983     0.19900
C1150       C  0.74965662  0.90841500  0.47951184     0.24900
C1151       C  0.74393513  0.93680153  0.00170641    -0.23100
C1152       C  0.71782180  0.93524204  0.02900935     0.19800
F1153       F  0.71026572  0.96113186  0.05253883    -0.13100
F1154       F  0.67124190  0.90797988  0.05395461    -0.15400
F1155       F  0.77409797  0.90967135  0.45199200    -0.15400
F1156       F  0.73519869  0.85666431  0.45381526    -0.13100
C1157       C  0.75634318  0.11181975  0.97692527     0.25000
C1158       C  0.74668040  0.08041045  0.49850226    -0.23200
C1159       C  0.71461675  0.07844943  0.51201183     0.19900
C1160       C  0.69437837  0.10565103  0.51009572     0.24900
C1161       C  0.70630563  0.13589085  0.49628246    -0.23100
C1162       C  0.73692846  0.13975704  0.97708499     0.19800
F1163       F  0.74936395  0.16743810  0.96128223    -0.13100
F1164       F  0.78649808  0.11328743  0.96049597    -0.15400
F1165       F  0.66287902  0.10215431  0.52126808    -0.15400
F1166       F  0.70273478  0.05000376  0.52647511    -0.13100
C1167       C  0.92830687  0.09918139  0.97542013     0.25000
C1168       C  0.93262394  0.11904527  0.00980368    -0.23200
C1169       C  0.92010815  0.10599987  0.54537683     0.19900
C1170       C  0.89478992  0.08349148  0.54409332     0.24900
C1171       C  0.88225007  0.07241208  0.50657793    -0.23100
C1172       C  0.90249892  0.07740112  0.97333616     0.19800
F1173       F  0.89955640  0.05841170  0.93985863    -0.13100
F1174       F  0.94935980  0.10046492  0.94379639    -0.15400
F1175       F  0.88259755  0.07272048  0.57996604    -0.15400
F1176       F  0.93095469  0.11603999  0.58231463    -0.13100
C1177       C  0.89993519  0.76845832  0.97959528     0.25000
C1178       C  0.93238987  0.75678853  0.49931601    -0.23200
C1179       C  0.93723102  0.72466186  0.51158967     0.19900
C1180       C  0.91159485  0.70256401  0.50963161     0.24900
C1181       C  0.88035558  0.71261721  0.49659789    -0.23100
C1182       C  0.87374971  0.74682059  0.97896755     0.19800
F1183       F  0.84463730  0.75748467  0.96488466    -0.13100
F1184       F  0.89547074  0.79922505  0.96586247    -0.15400
F1185       F  0.91729513  0.67133821  0.52080148    -0.15400
F1186       F  0.96684458  0.71465086  0.52503999    -0.13100
C1187       C  0.09443907  0.75987589  0.96589679     0.25000
C1188       C  0.07306102  0.76098988  0.99912139    -0.23200
C1189       C  0.08523780  0.74198050  0.53621613     0.19900
C1190       C  0.11190698  0.72085521  0.53507768     0.24900
C1191       C  0.12621181  0.71770911  0.99947780    -0.23100
C1192       C  0.12078696  0.73853328  0.96618585     0.19800
F1193       F  0.14114525  0.73817655  0.93381727    -0.13100
F1194       F  0.09021424  0.77976179  0.93328987    -0.15400
F1195       F  0.12018953  0.70388598  0.56905020    -0.15400
F1196       F  0.06879304  0.74507629  0.57168102    -0.13100
C1197       C  0.89011226  0.92243159  0.54359086     0.25000
C1198       C  0.87691242  0.93862303  0.00546732    -0.23200
C1199       C  0.88347022  0.92069355  0.96998133     0.19900
C1200       C  0.90855513  0.89790865  0.96931726     0.24900
C1201       C  0.92998699  0.89044982  0.50605914    -0.23100
C1202       C  0.91525011  0.89948562  0.54303669     0.19800
F1203       F  0.92493969  0.88609561  0.57889109    -0.13100
F1204       F  0.87679830  0.93044007  0.57989454    -0.15400
F1205       F  0.91350266  0.88096183  0.93455370    -0.15400
F1206       F  0.86545044  0.92491924  0.93563904    -0.13100
C1207       C  0.07623054  0.91321784  0.96479626     0.25000
C1208       C  0.06980174  0.89559194  0.00073553    -0.23200
C1209       C  0.08461666  0.90648744  0.53779558     0.19900
C1210       C  0.10958266  0.92947087  0.53594773     0.24900
C1211       C  0.12261516  0.93924907  0.49817909    -0.23100
C1212       C  0.10185410  0.93541127  0.96306933     0.19800
F1213       F  0.10661947  0.95189597  0.92779124    -0.13100
F1214       F  0.05753194  0.90930449  0.93101351    -0.15400
F1215       F  0.12062762  0.94235590  0.57135985    -0.15400
F1216       F  0.07269075  0.89812524  0.57479517    -0.13100
loop_ 
_geom_bond_atom_site_label_1 
_geom_bond_atom_site_label_2 
_geom_bond_distance 
_geom_bond_site_symmetry_2 
_ccdc_geom_bond_type 
O1           Ni9   1.931   1_655  S
O1           C11   1.284   1_554  A
O2           Ni9   1.934       .  S
O2          C620   1.286       .  A
O3           Ni9   1.914   1_655  S
O3           C13   1.280       .  A
O4           Ni9   1.908       .  S
O4          C622   1.279   1_554  A
O5          Ni10   1.918       .  S
O5           C14   1.283       .  A
O6          Ni10   1.916   1_655  S
O6          C621   1.282       .  A
O7          Ni10   1.900       .  S
O7           C12   1.277       .  A
O8          Ni10   1.900   1_655  S
O8          C619   1.275       .  A
Ni9        Ni618   2.385   1_554  S
Ni10       Ni617   2.385       .  S
C11         O616   1.277       .  A
C11         C570   1.471       .  S
C12         O610   1.285       .  A
C12         C600   1.490       .  S
C13         O614   1.283   1_554  A
C13         C593   1.487       .  S
C14         O612   1.279       .  A
C14         C580   1.485       .  S
O15         Ni23   1.927   1_565  S
O15          C25   1.285       .  A
O16         Ni23   1.923       .  S
O16         C634   1.283       .  A
O17         Ni23   1.900   1_565  S
O17          C27   1.278       .  A
O18         Ni23   1.909       .  S
O18         C636   1.277       .  A
O19         Ni24   1.927       .  S
O19          C28   1.283   1_554  A
O20         Ni24   1.930   1_565  S
O20         C635   1.285       .  A
O21         Ni24   1.904       .  S
O21          C26   1.278       .  A
O22         Ni24   1.904   1_565  S
O22         C633   1.277       .  A
Ni23       Ni632   2.385       .  S
Ni24       Ni631   2.388   1_554  S
C25         O630   1.278       .  A
C25         C543   1.480       .  S
C26         O624   1.283   1_554  A
C26         C563   1.478       .  S
C27         O628   1.285       .  A
C27         C590   1.489       .  S
C28         O626   1.279       .  A
C28         C550   1.474       .  S
O29         Ni37   1.920       .  S
O29          C39   1.283       .  A
O30         Ni37   1.923   1_455  S
O30         C648   1.283       .  A
O31         Ni37   1.908       .  S
O31          C41   1.279       .  A
O32         Ni37   1.911   1_455  S
O32         C650   1.279       .  A
O33         Ni38   1.930       .  S
O33          C42   1.284       .  A
O34         Ni38   1.926   1_655  S
O34         C649   1.284       .  A
O35         Ni38   1.912       .  S
O35          C40   1.279       .  A
O36         Ni38   1.908   1_655  S
O36         C647   1.279       .  A
Ni37       Ni646   2.383   1_655  S
Ni38       Ni645   2.389   1_554  S
C39         O644   1.280       .  A
C39         C510   1.487       .  S
C40         O638   1.282   1_554  A
C40         C530   1.475       .  S
C41         O642   1.284       .  A
C41         C560   1.489       .  S
C42         O640   1.277   1_554  A
C42         C520   1.471       .  S
O43         Ni51   1.931       .  S
O43          C53   1.286       .  A
O44         Ni51   1.924   1_565  S
O44         C662   1.284       .  A
O45         Ni51   1.911       .  S
O45          C55   1.280       .  A
O46         Ni51   1.918   1_565  S
O46         C664   1.279       .  A
O47         Ni52   1.927   1_565  S
O47          C56   1.284   1_554  A
O48         Ni52   1.924       .  S
O48         C663   1.283       .  A
O49         Ni52   1.917   1_565  S
O49          C54   1.281   1_554  A
O50         Ni52   1.921       .  S
O50         C661   1.281   1_554  A
Ni51       Ni660   2.384       .  S
Ni52       Ni659   2.384   1_554  S
C53         O658   1.279       .  A
C53         C500   1.495       .  S
C54         O652   1.285       .  A
C54         C603   1.495       .  S
C55         O656   1.284       .  A
C55         C533   1.483       .  S
C56         O654   1.277       .  A
C56         C490   1.471       .  S
C57          C58   1.533       .  S
C57          C63   1.526       .  S
C57          C61   1.540       .  S
C57         C480   1.527       .  S
C58          H65   1.086       .  S
C58          C59   1.364       .  D
C59         C668   1.543       .  S
C59         C583   1.480       .  S
C60          C64   1.551       .  S
C60          C62   1.552       .  S
C60         C667   1.545   1_554  S
C60          H66   1.110       .  S
C61          H67   1.081       .  S
C61         C670   1.368       .  D
C62         C669   1.364   1_554  D
C62         C460   1.494       .  S
C63         H676   1.087       .  S
C63         C672   1.361       .  D
C64         C671   1.365       .  D
C64         C470   1.492       .  S
H68         C671   1.087       .  S
C69          C70   1.537       .  S
C69          C75   1.538   1_554  S
C69          C73   1.523       .  S
C69         C450   1.533       .  S
C70          H77   1.078       .  S
C70         C679   1.369   1_554  D
C71          C72   1.551       .  S
C71         C678   1.369       .  D
C71        C1101   1.497       .  S
C72          C76   1.547       .  S
C72          C74   1.551       .  S
C72          H78   1.109       .  S
C73          H79   1.087       .  S
C73         C682   1.360   1_554  D
C74         C681   1.358       .  D
C74         C463   1.476       .  S
C75         H688   1.086       .  S
C75         C684   1.365       .  D
C76         C683   1.362       .  D
C76         C440   1.487       .  S
H80         C683   1.087       .  S
N81          C86   1.356       .  A
N81          C85   1.352       .  A
N81         H113   1.037       .  S
N82          C89   1.348       .  A
N82          C90   1.353       .  A
N83          C88   1.352       .  A
N83          C87   1.357       .  A
N83         H114   1.039       .  S
N84          C91   1.354       .  A
N84          C92   1.350       .  A
C85          C93   1.389       .  A
C85         C101   1.417       .  A
C86         C102   1.417       .  A
C86          C94   1.386       .  A
C87          C95   1.386       .  A
C87         C104   1.417       .  A
C88         C103   1.418       .  A
C88          C96   1.388       .  A
C89         C101   1.412       .  A
C89          C97   1.388       .  A
C90         C104   1.412       .  A
C90          C98   1.385       .  A
C91          C99   1.383       .  A
C91         C102   1.412       .  A
C92         C100   1.388       .  A
C92         C103   1.417       .  A
C93          C94   1.371       .  A
C93         H105   1.082       .  S
C94         H106   1.082       .  S
C95          C96   1.374       .  A
C95         H107   1.082       .  S
C96         H108   1.082       .  S
C97          C98   1.375       .  A
C97         H109   1.082       .  S
C98         H110   1.082       .  S
C99         C100   1.374       .  A
C99         H111   1.082       .  S
C100        H112   1.082       .  S
C101        C430   1.476       .  S
C102        C443   1.496       .  S
C103        C453   1.486       .  S
C104        C420   1.495       .  S
C115        C116   1.535       .  S
C115        C121   1.529       .  S
C115        C119   1.533       .  S
C115        C433   1.529       .  S
C116        H123   1.081       .  S
C116        C117   1.363       .  D
C117        C726   1.549       .  S
C117        C540   1.479       .  S
C118        C122   1.550       .  S
C118        C725   1.543       .  S
C118        C728   1.551   1_554  S
C118        H124   1.110       .  S
C119        H125   1.086       .  S
C119        C120   1.364       .  D
C120        C726   1.551       .  S
C120        C410   1.491       .  S
C121        H126   1.087       .  S
C121        C730   1.365       .  D
C122        C729   1.365       .  D
C122        C423   1.491       .  S
C127        C128   1.534       .  S
C127        C133   1.529       .  S
C127        C131   1.534       .  S
C127        C400   1.526       .  S
C128        H135   1.084       .  S
C128        C129   1.365       .  D
C129        C738   1.551   1_554  S
C129        C573   1.495   1_554  S
C130        C134   1.545       .  S
C130        C132   1.548       .  S
C130        C737   1.548       .  S
C130        H136   1.109       .  S
C131        H137   1.085       .  S
C131        C740   1.363       .  D
C132        C739   1.362       .  D
C132        C413   1.477       .  S
C133        H746   1.087       .  S
C133        C742   1.362   1_554  D
C134        C741   1.364       .  D
C134        C390   1.491       .  S
H138        C741   1.087       .  S
C139        C140   1.536       .  S
C139        C145   1.525       .  S
C139        C143   1.541       .  S
C139        C383   1.533       .  S
C140        H147   1.086       .  S
C140        C749   1.364       .  D
C141        C142   1.550   1_556  S
C141        C748   1.367       .  D
C141        C503   1.499       .  S
C142        C146   1.559       .  S
C142        C144   1.556   1_554  S
C142        H148   1.109       .  S
C143        H149   1.079       .  S
C143        C752   1.368       .  D
C144        C751   1.367       .  D
C144        C360   1.500       .  S
C145        H758   1.087       .  S
C145        C754   1.363       .  D
C146        C753   1.363       .  D
C146        C370   1.495       .  S
H150        C753   1.087       .  S
C151        C152   1.536       .  S
C151        C157   1.522   1_554  S
C151        C155   1.534       .  S
C151        C350   1.527       .  S
C152        H159   1.085       .  S
C152        C153   1.367   1_554  D
C153        C762   1.551       .  S
C153        C523   1.500       .  S
C154        C158   1.557       .  S
C154        C761   1.546       .  S
C154        C764   1.557       .  S
C154        H160   1.109       .  S
C155        H161   1.080       .  S
C155        C156   1.367   1_554  D
C156        C762   1.559       .  S
C156        C363   1.503       .  S
C157        H162   1.087       .  S
C157        C766   1.361       .  D
C158        C765   1.365       .  D
C158        C343   1.492       .  S
N163        C168   1.351       .  A
N163        C167   1.357       .  A
N163        H195   1.039       .  S
N164        C171   1.355       .  A
N164        C172   1.349       .  A
N165        C170   1.357       .  A
N165        C169   1.349       .  A
N165        H196   1.038       .  S
N166        C173   1.347       .  A
N166        C174   1.354       .  A
C167        C175   1.386       .  A
C167        C183   1.417       .  A
C168        C184   1.417       .  A
C168        C176   1.389       .  A
C169        C177   1.389       .  A
C169        C186   1.414       .  A
C170        C185   1.415       .  A
C170        C178   1.386       .  A
C171        C183   1.413       .  A
C171        C179   1.383       .  A
C172        C186   1.415       .  A
C172        C180   1.389       .  A
C173        C181   1.389       .  A
C173        C184   1.414       .  A
C174        C182   1.383       .  A
C174        C185   1.412       .  A
C175        C176   1.373       .  A
C175        H187   1.083       .  S
C176        H188   1.082       .  S
C177        C178   1.372       .  A
C177        H189   1.082       .  S
C178        H190   1.082       .  S
C179        C180   1.377       .  A
C179        H191   1.082       .  S
C180        H192   1.082       .  S
C181        C182   1.377       .  A
C181        H193   1.082       .  S
C182        H194   1.082       .  S
C183        C340   1.501       .  S
C184        C483   1.474       .  S
C185        C473   1.498       .  S
C186        C353   1.473       .  S
N197        C202   1.353       .  A
N197        C201   1.358       .  A
N197        H229   1.039       .  S
N198        C205   1.355       .  A
N198        C206   1.350       .  A
N199        C204   1.356       .  A
N199        C203   1.351       .  A
N199        H230   1.039       .  S
N200        C207   1.349       .  A
N200        C208   1.355       .  A
C201        C209   1.385       .  A
C201        C217   1.419       .  A
C202        C218   1.420       .  A
C202        C210   1.389       .  A
C203        C211   1.389       .  A
C203        C220   1.414       .  A
C204        C219   1.414       .  A
C204        C212   1.386       .  A
C205        C217   1.414       .  A
C205        C213   1.384       .  A
C206        C220   1.416       .  A
C206        C214   1.388       .  A
C207        C215   1.390       .  A
C207        C218   1.418       .  A
C208        C216   1.383       .  A
C208        C219   1.412       .  A
C209        C210   1.376       .  A
C209        H221   1.083       .  S
C210        H222   1.082       .  S
C211        C212   1.372       .  A
C211        H223   1.082       .  S
C212        H224   1.082       .  S
C213        C214   1.378       .  A
C213        H225   1.082       .  S
C214        H226   1.082       .  S
C215        C216   1.377       .  A
C215        H227   1.082       .  S
C216        H228   1.082       .  S
C217        C373   1.502       .  S
C218        C330   1.486       .  S
C219        C320   1.497       .  S
C220        C380   1.479       .  S
C231        C232   1.534       .  S
C231        C237   1.537   1_554  S
C231        C235   1.538       .  S
C231        C333   1.538       .  S
C232        H239   1.085       .  S
C232        C233   1.369   1_554  D
C233        C842   1.550       .  S
C233        C553   1.500       .  S
C234        C238   1.545       .  S
C234        C841   1.551       .  S
C234        C844   1.550       .  S
C234        H240   1.109       .  S
C235        H241   1.077       .  S
C235        C236   1.361   1_554  D
C236        C842   1.548       .  S
C236        C310   1.481       .  S
C237        H242   1.087       .  S
C237        C846   1.364       .  D
C238        C845   1.364       .  D
C238        C323   1.487       .  S
C243        C244   1.540       .  S
C243        C249   1.531       .  S
C243        C247   1.535       .  S
C243        C303   1.534       .  S
C244        H251   1.080       .  S
C244        C245   1.366       .  D
C245        C854   1.543       .  S
C245        C513   1.485       .  S
C246        C250   1.554       .  S
C246        C853   1.546       .  S
C246        C856   1.555   1_554  S
C246        H252   1.110       .  S
C247        H253   1.086       .  S
C247        C248   1.365       .  D
C248        C854   1.550       .  S
C248        C921   1.490       .  S
C249        H254   1.087       .  S
C249        C858   1.362       .  D
C250        C857   1.364       .  D
C250        C290   1.494       .  S
N255        C260   1.351       .  A
N255        C259   1.356       .  A
N255        H287   1.043       .  S
N256        C263   1.354       .  A
N256        C264   1.350       .  A
N257        C262   1.356       .  A
N257        C261   1.351       .  A
N257        H288   1.043       .  S
N258        C265   1.349       .  A
N258        C266   1.354       .  A
C259        C267   1.385       .  A
C259        C275   1.417       .  A
C260        C276   1.420       .  A
C260        C268   1.391       .  A
C261        C269   1.388       .  A
C261        C278   1.416       .  A
C262        C277   1.418       .  A
C262        C270   1.386       .  A
C263        C275   1.413       .  A
C263        C271   1.384       .  A
C264        C278   1.415       .  A
C264        C272   1.388       .  A
C265        C273   1.389       .  A
C265        C276   1.415       .  A
C266        C274   1.383       .  A
C266        C277   1.412       .  A
C267        C268   1.372       .  A
C267        H279   1.083       .  S
C268        H280   1.082       .  S
C269        C270   1.373       .  A
C269        H281   1.082       .  S
C270        H282   1.082       .  S
C271        C272   1.375       .  A
C271        H283   1.082       .  S
C272        H284   1.082       .  S
C273        C274   1.374       .  A
C273        H285   1.082       .  S
C274        H286   1.082       .  S
C275        C293   1.498       .  S
C276        C403   1.477       .  S
C277        C393   1.497       .  S
C278        C300   1.478       .  S
C289        C290   1.407       .  A
C289        C294   1.404       .  A
C289        F296   1.349       .  S
C290        C291   1.407       .  A
C291        C292   1.404       .  A
C291        F298   1.357       .  S
C292        C293   1.406       .  A
C292        F297   1.357       .  S
C293        C294   1.405       .  A
C294        F295   1.358       .  S
C299        C300   1.398       .  A
C299        C304   1.398       .  A
C299        F306   1.358       .  S
C300        C301   1.397       .  A
C301        C302   1.394       .  A
C301        F308   1.358       .  S
C302        C303   1.417       .  A
C302        F307   1.358       .  S
C303        C304   1.420       .  A
C304        F305   1.353       .  S
C309        C314   1.398       .  A
C309        C918   1.403       .  A
C309        F316   1.358       .  S
C310        C311   1.406   1_556  A
C310        C917   1.402       .  A
C311        C312   1.405       .  A
C311        F318   1.356       .  S
C312        C313   1.407   1_554  A
C312        F317   1.356       .  S
C313        C856   1.494       .  S
C313        C922   1.413       .  A
C314        C921   1.410       .  A
C314        F315   1.358       .  S
C319        C320   1.406       .  A
C319        C324   1.401       .  A
C319        F326   1.358       .  S
C320        C321   1.408       .  A
C321        C322   1.408       .  A
C321        F328   1.357       .  S
C322        C323   1.406       .  A
C322        F327   1.357       .  S
C323        C324   1.406       .  A
C324        F325   1.358       .  S
C329        C330   1.400       .  A
C329        C334   1.396       .  A
C329        F336   1.358       .  S
C330        C331   1.399       .  A
C331        C332   1.397       .  A
C331        F338   1.358       .  S
C332        C333   1.421       .  A
C332        F337   1.351       .  S
C333        C334   1.418       .  A
C334        F335   1.359       .  S
C339        C340   1.410       .  A
C339        C344   1.410       .  A
C339        F346   1.357       .  S
C340        C341   1.406       .  A
C341        C342   1.401       .  A
C341        F348   1.358       .  S
C342        C343   1.408       .  A
C342        F347   1.358       .  S
C343        C344   1.407       .  A
C344        F345   1.357       .  S
C349        C350   1.416       .  A
C349        C354   1.394       .  A
C349        F356   1.358       .  S
C350        C351   1.415       .  A
C351        C352   1.395       .  A
C351        F358   1.356       .  S
C352        C353   1.398       .  A
C352        F357   1.358       .  S
C353        C354   1.398       .  A
C354        F355   1.358       .  S
C359        C364   1.406       .  A
C359        C968   1.417       .  A
C359        F366   1.358       .  S
C360        C361   1.402   1_556  A
C360        C967   1.417       .  A
C361        C362   1.403       .  A
C361        F368   1.357       .  S
C362        C363   1.419   1_554  A
C362        F367   1.358       .  S
C363        C972   1.403       .  A
C364        C971   1.404       .  A
C364        F365   1.356       .  S
C369        C370   1.409       .  A
C369        C374   1.412       .  A
C369        F376   1.357       .  S
C370        C371   1.408       .  A
C371        C372   1.402       .  A
C371        F378   1.358       .  S
C372        C373   1.405       .  A
C372        F377   1.358       .  S
C373        C374   1.410       .  A
C374        F375   1.357       .  S
C379        C380   1.399       .  A
C379        C384   1.396       .  A
C379        F386   1.358       .  S
C380        C381   1.399       .  A
C381        C382   1.397       .  A
C381        F388   1.358       .  S
C382        C383   1.417       .  A
C382        F387   1.354       .  S
C383        C384   1.416       .  A
C384        F385   1.359       .  S
C389        C390   1.407       .  A
C389        C394   1.399       .  A
C389        F396   1.358       .  S
C390        C391   1.407       .  A
C391        C392   1.408       .  A
C391        F398   1.358       .  S
C392        C393   1.409       .  A
C392        F397   1.357       .  S
C393        C394   1.404       .  A
C394        F395   1.358       .  S
C399        C400   1.416       .  A
C399        C404   1.396       .  A
C399        F406   1.357       .  S
C400        C401   1.417       .  A
C401        C402   1.392       .  A
C401        F408   1.357       .  S
C402        C403   1.398       .  A
C402        F407   1.358       .  S
C403        C404   1.399       .  A
C404        F405   1.358       .  S
C409        C414   1.405       .  A
C409       C1018   1.408   1_554  A
C409        F416   1.357       .  S
C410        C411   1.412       .  A
C410       C1017   1.408       .  A
C411        C412   1.396       .  A
C411        F418   1.358       .  S
C412        C413   1.399       .  A
C412        F417   1.358       .  S
C413       C1022   1.407       .  A
C414       C1021   1.406   1_554  A
C414        F415   1.356       .  S
C419        C420   1.407       .  A
C419        C424   1.406       .  A
C419        F426   1.358       .  S
C420        C421   1.404       .  A
C421        C422   1.400       .  A
C421        F428   1.358       .  S
C422        C423   1.408       .  A
C422        F427   1.358       .  S
C423        C424   1.406       .  A
C424        F425   1.354       .  S
C429        C430   1.399       .  A
C429        C434   1.395       .  A
C429        F436   1.358       .  S
C430        C431   1.396       .  A
C431        C432   1.394       .  A
C431        F438   1.358       .  S
C432        C433   1.417       .  A
C432        F437   1.359       .  S
C433        C434   1.417       .  A
C434        F435   1.353       .  S
C439        C440   1.405       .  A
C439        C444   1.406       .  A
C439        F446   1.357       .  S
C440        C441   1.408       .  A
C441        C442   1.400       .  A
C441        F448   1.358       .  S
C442        C443   1.405       .  A
C442        F447   1.358       .  S
C443        C444   1.408       .  A
C444        F445   1.357       .  S
C449        C450   1.418       .  A
C449        C454   1.396       .  A
C449        F456   1.355       .  S
C450        C451   1.415       .  A
C451        C452   1.397       .  A
C451        F458   1.358       .  S
C452        C453   1.402       .  A
C452        F457   1.358       .  S
C453        C454   1.400       .  A
C454        F455   1.358       .  S
C459        C460   1.409       .  A
C459        C464   1.407       .  A
C459        F466   1.357       .  S
C460       C1069   1.411   1_554  A
C461        C462   1.397       .  A
C461       C1068   1.410       .  A
C461        F468   1.358       .  S
C462        C463   1.402       .  A
C462        F467   1.358       .  S
C463       C1072   1.404       .  A
C464       C1071   1.407   1_554  A
C464        F465   1.357       .  S
C469        C470   1.406       .  A
C469        C474   1.409       .  A
C469        F476   1.357       .  S
C470        C471   1.408       .  A
C471        C472   1.401       .  A
C471        F478   1.358       .  S
C472        C473   1.405       .  A
C472        F477   1.358       .  S
C473        C474   1.409       .  A
C474        F475   1.357       .  S
C479        C480   1.417       .  A
C479        C484   1.395       .  A
C479        F486   1.358       .  S
C480        C481   1.416       .  A
C481        C482   1.394       .  A
C481        F488   1.355       .  S
C482        C483   1.398       .  A
C482        F487   1.358       .  S
C483        C484   1.397       .  A
C484        F485   1.358       .  S
C489        C490   1.397       .  A
C489        C494   1.397       .  A
C489        F496   1.358   1_556  S
C490       C1099   1.406       .  A
C491        C492   1.404       .  A
C491       C1098   1.406       .  A
C491        F498   1.358       .  S
C492       C1101   1.409       .  A
C492        F497   1.356       .  S
C493        C679   1.499       .  S
C493        C494   1.416       .  A
C493       C1100   1.410       .  A
C494        F495   1.358   1_556  S
C499        C504   1.408       .  A
C499       C1108   1.417   1_554  A
C499        F506   1.357       .  S
C500        C501   1.409       .  A
C500       C1107   1.416       .  A
C501        C502   1.400       .  A
C501        F508   1.358       .  S
C502       C1111   1.410       .  A
C502        F507   1.358       .  S
C503        C504   1.405   1_556  A
C503       C1110   1.411       .  A
C504        F505   1.358       .  S
C509        C514   1.397       .  A
C509       C1118   1.405       .  A
C509        F516   1.358       .  S
C510        C511   1.408       .  A
C510       C1117   1.412       .  A
C511        C512   1.396       .  A
C511        F518   1.358       .  S
C512        C513   1.405       .  A
C512        F517   1.358       .  S
C513       C1122   1.403       .  A
C514       C1121   1.403       .  A
C514        F515   1.351       .  S
C519        C524   1.398       .  A
C519       C1128   1.408       .  A
C519        F526   1.358       .  S
C520        C521   1.398       .  A
C520       C1127   1.404   1_554  A
C521        C522   1.399       .  A
C521        F528   1.358       .  S
C522        C523   1.417   1_554  A
C522        F527   1.358       .  S
C523       C1132   1.411       .  A
C524       C1131   1.407       .  A
C524        F525   1.358       .  S
C529        C534   1.399       .  A
C529       C1138   1.407       .  A
C529        F536   1.358       .  S
C530        C531   1.409       .  A
C530       C1137   1.404   1_554  A
C531        C532   1.401       .  A
C531        F538   1.358       .  S
C532       C1141   1.407       .  A
C532        F537   1.358       .  S
C533        C534   1.409       .  A
C533       C1140   1.407       .  A
C534        F535   1.358       .  S
C539        C540   1.404       .  A
C539        C544   1.404       .  A
C539        F546   1.357       .  S
C540       C1149   1.405       .  A
C541        C542   1.396       .  A
C541       C1148   1.405   1_556  A
C541        F548   1.358       .  S
C542       C1151   1.405   1_556  A
C542        F547   1.358       .  S
C543        C544   1.410       .  A
C543       C1150   1.405       .  A
C544        F545   1.358       .  S
C549        C554   1.402       .  A
C549       C1158   1.405       .  A
C549        F556   1.358       .  S
C550        C551   1.398   1_556  A
C550       C1157   1.405       .  A
C551        C552   1.399       .  A
C551        F558   1.358       .  S
C552        C553   1.417   1_554  A
C552        F557   1.357       .  S
C553       C1162   1.411       .  A
C554       C1161   1.409       .  A
C554        F555   1.355       .  S
C559        C560   1.413       .  A
C559        C564   1.399       .  A
C559        F566   1.358       .  S
C560       C1169   1.408       .  A
C561        C562   1.398       .  A
C561       C1168   1.405       .  A
C561        F568   1.358       .  S
C562        C563   1.410       .  A
C562        F567   1.358       .  S
C563       C1172   1.405   1_554  A
C564       C1171   1.408       .  A
C564        F565   1.358       .  S
C569        C574   1.398       .  A
C569       C1178   1.403       .  A
C569        F576   1.358       .  S
C570        C571   1.399   1_556  A
C570       C1177   1.405       .  A
C571        C572   1.399       .  A
C571        F578   1.358       .  S
C572        C573   1.416   1_554  A
C572        F577   1.358       .  S
C573       C1182   1.407       .  A
C574       C1181   1.407       .  A
C574        F575   1.355       .  S
C579        C580   1.408       .  A
C579        C584   1.393       .  A
C579        F586   1.358       .  S
C580       C1189   1.414       .  A
C581        C582   1.400       .  A
C581       C1188   1.413   1_554  A
C581        F588   1.358       .  S
C582       C1191   1.401   1_554  A
C582        F587   1.358       .  S
C583        C584   1.406       .  A
C583       C1190   1.402       .  A
C584        F585   1.358       .  S
C589        C594   1.402       .  A
C589       C1198   1.408       .  A
C589        F596   1.358       .  S
C590        C591   1.412       .  A
C590       C1197   1.408       .  A
C591        C592   1.395       .  A
C591        F598   1.358       .  S
C592       C1201   1.408       .  A
C592        F597   1.358       .  S
C593        C594   1.411       .  A
C593       C1200   1.407   1_554  A
C594        F595   1.358       .  S
C599        C600   1.413       .  A
C599        C604   1.396       .  A
C599        F606   1.358       .  S
C600       C1209   1.408       .  A
C601        C602   1.403       .  A
C601       C1208   1.408       .  A
C601        F608   1.358       .  S
C602        C603   1.413   1_554  A
C602        F607   1.358       .  S
C603       C1212   1.409       .  A
C604       C1211   1.406       .  A
C604        F605   1.358       .  S
O609       Ni617   1.927   1_655  S
O609        C619   1.283       .  A
O610       Ni617   1.931       .  S
O611       Ni617   1.917   1_655  S
O611        C621   1.281       .  A
O612       Ni617   1.912       .  S
O613       Ni618   1.925       .  S
O613        C622   1.284       .  A
O614       Ni618   1.920   1_655  S
O615       Ni618   1.908       .  S
O615        C620   1.279   1_556  A
O616       Ni618   1.908   1_655  S
C619       C1178   1.464       .  S
C620       C1208   1.492       .  S
C621       C1201   1.490       .  S
C622       C1188   1.483       .  S
O623       Ni631   1.923   1_565  S
O623        C633   1.284   1_556  A
O624       Ni631   1.917       .  S
O625       Ni631   1.904   1_565  S
O625        C635   1.279   1_556  A
O626       Ni631   1.914       .  S
O627       Ni632   1.929       .  S
O627        C636   1.284       .  A
O628       Ni632   1.931   1_565  S
O629       Ni632   1.909       .  S
O629        C634   1.279       .  A
O630       Ni632   1.912   1_565  S
C633       C1151   1.471       .  S
C634       C1171   1.489       .  S
C635       C1198   1.487       .  S
C636       C1158   1.471       .  S
O637       Ni645   1.920   1_655  S
O637        C647   1.283   1_556  A
O638       Ni645   1.913       .  S
O639       Ni645   1.899   1_655  S
O639        C649   1.277   1_556  A
O640       Ni645   1.908       .  S
O641       Ni646   1.930       .  S
O641        C650   1.285       .  A
O642       Ni646   1.925   1_655  S
O643       Ni646   1.917       .  S
O643        C648   1.281       .  A
O644       Ni646   1.919   1_655  S
C647       C1118   1.474       .  S
C648       C1138   1.484       .  S
C649       C1168   1.478       .  S
C650       C1128   1.491       .  S
O651       Ni659   1.937       .  S
O651        C661   1.287       .  A
O652       Ni659   1.928   1_565  S
O653       Ni659   1.900       .  S
O653        C663   1.278   1_556  A
O654       Ni659   1.912   1_565  S
O655       Ni660   1.928   1_565  S
O655        C664   1.284       .  A
O656       Ni660   1.928       .  S
O657       Ni660   1.910   1_565  S
O657        C662   1.279       .  A
O658       Ni660   1.912       .  S
C661       C1108   1.503       .  S
C662       C1211   1.489       .  S
C663       C1141   1.476       .  S
C664       C1098   1.475       .  S
C665        C666   1.534       .  S
C665        C671   1.529   1_556  S
C665        C669   1.534       .  S
C665       C1088   1.529       .  S
C666        H673   1.086       .  S
C666        C667   1.363       .  D
C667       C1191   1.477       .  S
C668        C672   1.543       .  S
C668        C670   1.547       .  S
C668        H674   1.110       .  S
C669        H675   1.084       .  S
C670       C1068   1.491       .  S
C672       C1078   1.478       .  S
C677        C678   1.538       .  S
C677        C683   1.529       .  S
C677        C681   1.530       .  S
C677       C1058   1.526       .  S
C678        H685   1.080       .  S
C679        C680   1.550       .  S
C680        C684   1.549       .  S
C680        C682   1.555       .  S
C680        H686   1.109       .  S
C681        H687   1.087       .  S
C682       C1071   1.483       .  S
C684       C1048   1.490       .  S
N689        C694   1.357       .  A
N689        C693   1.348       .  A
N689        H721   1.039       .  S
N690        C697   1.347       .  A
N690        C698   1.354       .  A
N691        C696   1.351       .  A
N691        C695   1.358       .  A
N691        H722   1.040       .  S
N692        C699   1.353       .  A
N692        C700   1.345       .  A
C693        C701   1.390       .  A
C693        C709   1.415       .  A
C694        C710   1.414       .  A
C694        C702   1.384       .  A
C695        C703   1.385       .  A
C695        C712   1.418       .  A
C696        C711   1.417       .  A
C696        C704   1.389       .  A
C697        C709   1.413       .  A
C697        C705   1.389       .  A
C698        C712   1.412       .  A
C698        C706   1.384       .  A
C699        C707   1.383       .  A
C699        C710   1.409       .  A
C700        C708   1.389       .  A
C700        C711   1.409       .  A
C701        C702   1.375       .  A
C701        H713   1.082       .  S
C702        H714   1.082       .  S
C703        C704   1.372       .  A
C703        H715   1.082       .  S
C704        H716   1.082       .  S
C705        C706   1.375       .  A
C705        H717   1.082       .  S
C706        H718   1.082       .  S
C707        C708   1.376       .  A
C707        H719   1.082       .  S
C708        H720   1.082       .  S
C709       C1038   1.470       .  S
C710       C1051   1.496       .  S
C711       C1061   1.470       .  S
C712       C1028   1.504       .  S
C723        C724   1.534       .  S
C723        C729   1.533   1_556  S
C723        C727   1.536       .  S
C723       C1041   1.531       .  S
C724        H731   1.077       .  S
C724        C725   1.357   1_556  D
C725       C1148   1.473       .  S
C726        C730   1.552       .  S
C726        H732   1.110       .  S
C727        H733   1.086       .  S
C727        C728   1.366       .  D
C728       C1018   1.491       .  S
C729        H734   1.087       .  S
C730       C1031   1.496       .  S
C735        C736   1.534       .  S
C735        C741   1.531       .  S
C735        C739   1.534       .  S
C735       C1008   1.528       .  S
C736        H743   1.082       .  S
C736        C737   1.365       .  D
C737       C1181   1.489       .  S
C738        C742   1.548       .  S
C738        C740   1.552   1_556  S
C738        H744   1.109       .  S
C739        H745   1.086       .  S
C740       C1021   1.481   1_554  S
C742        C998   1.487       .  S
C747        C748   1.541       .  S
C747        C753   1.524   1_556  S
C747        C751   1.536       .  S
C747        C991   1.536       .  S
C748        H755   1.086       .  S
C749        C750   1.547       .  S
C749       C1111   1.490       .  S
C750        C754   1.557       .  S
C750        C752   1.553       .  S
C750        H756   1.109       .  S
C751        H757   1.079       .  S
C752        C968   1.501       .  S
C754        C978   1.494       .  S
C759        C760   1.535       .  S
C759        C765   1.526       .  S
C759        C763   1.537       .  S
C759        C958   1.534       .  S
C760        H767   1.087       .  S
C760        C761   1.362       .  D
C761       C1131   1.485       .  S
C762        C766   1.553       .  S
C762        H768   1.106       .  S
C763        H769   1.074       .  S
C763        C764   1.367       .  D
C764        C971   1.504       .  S
C765        H770   1.087       .  S
C766        C951   1.489       .  S
N771        C776   1.352       .  A
N771        C775   1.357       .  A
N771        H803   1.035       .  S
N772        C779   1.354       .  A
N772        C780   1.350       .  A
N773        C778   1.355       .  A
N773        C777   1.350       .  A
N773        H804   1.036       .  S
N774        C781   1.348       .  A
N774        C782   1.352       .  A
C775        C783   1.386       .  A
C775        C791   1.419       .  A
C776        C792   1.417       .  A
C776        C784   1.389       .  A
C777        C785   1.389       .  A
C777        C794   1.414       .  A
C778        C793   1.414       .  A
C778        C786   1.386       .  A
C779        C791   1.414       .  A
C779        C787   1.384       .  A
C780        C794   1.415       .  A
C780        C788   1.388       .  A
C781        C789   1.389       .  A
C781        C792   1.413       .  A
C782        C790   1.384       .  A
C782        C793   1.410       .  A
C783        C784   1.372       .  A
C783        H795   1.082       .  S
C784        H796   1.082       .  S
C785        C786   1.371       .  A
C785        H797   1.082       .  S
C786        H798   1.082       .  S
C787        C788   1.376       .  A
C787        H799   1.082       .  S
C788        H800   1.082       .  S
C789        C790   1.374       .  A
C789        H801   1.082       .  S
C790        H802   1.082       .  S
C791        C948   1.498       .  S
C792       C1091   1.476       .  S
C793       C1081   1.488       .  S
C794        C961   1.477       .  S
N805        C810   1.353       .  A
N805        C809   1.356       .  A
N805        H837   1.038       .  S
N806        C813   1.356       .  A
N806        C814   1.352       .  A
N807        C812   1.356       .  A
N807        C811   1.351       .  A
N807        H838   1.037       .  S
N808        C815   1.348       .  A
N808        C816   1.353       .  A
C809        C817   1.387       .  A
C809        C825   1.419       .  A
C810        C826   1.417       .  A
C810        C818   1.388       .  A
C811        C819   1.388       .  A
C811        C828   1.416       .  A
C812        C827   1.417       .  A
C812        C820   1.386       .  A
C813        C825   1.417       .  A
C813        C821   1.384       .  A
C814        C828   1.419       .  A
C814        C822   1.388       .  A
C815        C823   1.388       .  A
C815        C826   1.414       .  A
C816        C824   1.384       .  A
C816        C827   1.412       .  A
C817        C818   1.374       .  A
C817        H829   1.083       .  S
C818        H830   1.082       .  S
C819        C820   1.373       .  A
C819        H831   1.082       .  S
C820        H832   1.082       .  S
C821        C822   1.377       .  A
C821        H833   1.082       .  S
C822        H834   1.082       .  S
C823        C824   1.375       .  A
C823        H835   1.082       .  S
C824        H836   1.082       .  S
C825        C981   1.503       .  S
C826        C938   1.479       .  S
C827        C928   1.494       .  S
C828        C988   1.483       .  S
C839        C840   1.535       .  S
C839        C845   1.533       .  S
C839        C843   1.535       .  S
C839        C941   1.533       .  S
C840        H847   1.085       .  S
C840        C841   1.368       .  D
C841       C1161   1.497       .  S
C842        C846   1.545       .  S
C842        H848   1.108       .  S
C843        H849   1.081       .  S
C843        C844   1.360       .  D
C844        C918   1.480       .  S
C845        H850   1.087       .  S
C846        C931   1.485       .  S
C851        C852   1.538       .  S
C851        C857   1.534   1_556  S
C851        C855   1.530       .  S
C851        C911   1.531       .  S
C852        H859   1.077       .  S
C852        C853   1.362   1_556  D
C853       C1121   1.478       .  S
C854        C858   1.550       .  S
C854        H860   1.110       .  S
C855        H861   1.087       .  S
C855        C856   1.362       .  D
C857        H862   1.087       .  S
C858        C898   1.488       .  S
N863        C868   1.352       .  A
N863        C867   1.359       .  A
N863        H895   1.034       .  S
N864        C871   1.354       .  A
N864        C872   1.348       .  A
N865        C870   1.357       .  A
N865        C869   1.349       .  A
N865        H896   1.034       .  S
N866        C873   1.348       .  A
N866        C874   1.354       .  A
C867        C875   1.385       .  A
C867        C883   1.418       .  A
C868        C884   1.420       .  A
C868        C876   1.390       .  A
C869        C877   1.389       .  A
C869        C886   1.415       .  A
C870        C885   1.415       .  A
C870        C878   1.385       .  A
C871        C883   1.411       .  A
C871        C879   1.384       .  A
C872        C886   1.414       .  A
C872        C880   1.388       .  A
C873        C881   1.389       .  A
C873        C884   1.414       .  A
C874        C882   1.383       .  A
C874        C885   1.412       .  A
C875        C876   1.372       .  A
C875        H887   1.082       .  S
C876        H888   1.082       .  S
C877        C878   1.373       .  A
C877        H889   1.082       .  S
C878        H890   1.082       .  S
C879        C880   1.374       .  A
C879        H891   1.082       .  S
C880        H892   1.082       .  S
C881        C882   1.375       .  A
C881        H893   1.082       .  S
C882        H894   1.082       .  S
C883        C901   1.498       .  S
C884       C1011   1.474       .  S
C885       C1001   1.496       .  S
C886        C908   1.472       .  S
C897        C898   1.406       .  A
C897        C902   1.404       .  A
C897        F904   1.355       .  S
C898        C899   1.407       .  A
C899        C900   1.404       .  A
C899        F906   1.358       .  S
C900        C901   1.406       .  A
C900        F905   1.357       .  S
C901        C902   1.406       .  A
C902        F903   1.358       .  S
C907        C908   1.396       .  A
C907        C912   1.396       .  A
C907        F914   1.358       .  S
C908        C909   1.395       .  A
C909        C910   1.391       .  A
C909        F916   1.358       .  S
C910        C911   1.417       .  A
C910        F915   1.359       .  S
C911        C912   1.421       .  A
C912        F913   1.351       .  S
C917        C922   1.398       .  A
C917        F924   1.358       .  S
C918        C919   1.405       .  A
C919        C920   1.403       .  A
C919        F926   1.356       .  S
C920        C921   1.407       .  A
C920        F925   1.357       .  S
C922        F923   1.358       .  S
C927        C928   1.405       .  A
C927        C932   1.401       .  A
C927        F934   1.358       .  S
C928        C929   1.407       .  A
C929        C930   1.406       .  A
C929        F936   1.357       .  S
C930        C931   1.405       .  A
C930        F935   1.357       .  S
C931        C932   1.406       .  A
C932        F933   1.358       .  S
C937        C938   1.398       .  A
C937        C942   1.396       .  A
C937        F944   1.358       .  S
C938        C939   1.398       .  A
C939        C940   1.396       .  A
C939        F946   1.358       .  S
C940        C941   1.418       .  A
C940        F945   1.354       .  S
C941        C942   1.417       .  A
C942        F943   1.358       .  S
C947        C948   1.409       .  A
C947        C952   1.409       .  A
C947        F954   1.357       .  S
C948        C949   1.405       .  A
C949        C950   1.400       .  A
C949        F956   1.358       .  S
C950        C951   1.407       .  A
C950        F955   1.358       .  S
C951        C952   1.407       .  A
C952        F953   1.357       .  S
C957        C958   1.417       .  A
C957        C962   1.395       .  A
C957        F964   1.359       .  S
C958        C959   1.419       .  A
C959        C960   1.395       .  A
C959        F966   1.352       .  S
C960        C961   1.396       .  A
C960        F965   1.358       .  S
C961        C962   1.399       .  A
C962        F963   1.358       .  S
C967        C972   1.402       .  A
C967        F974   1.358       .  S
C968        C969   1.402       .  A
C969        C970   1.400       .  A
C969        F976   1.356       .  S
C970        C971   1.418       .  A
C970        F975   1.358       .  S
C972        F973   1.356       .  S
C977        C978   1.408       .  A
C977        C982   1.411       .  A
C977        F984   1.356       .  S
C978        C979   1.408       .  A
C979        C980   1.401       .  A
C979        F986   1.358       .  S
C980        C981   1.407       .  A
C980        F985   1.358       .  S
C981        C982   1.409       .  A
C982        F983   1.357       .  S
C987        C988   1.400       .  A
C987        C992   1.396       .  A
C987        F994   1.358       .  S
C988        C989   1.399       .  A
C989        C990   1.399       .  A
C989        F996   1.358       .  S
C990        C991   1.419       .  A
C990        F995   1.355       .  S
C991        C992   1.415       .  A
C992        F993   1.358       .  S
C997        C998   1.407       .  A
C997       C1002   1.402       .  A
C997       F1004   1.358       .  S
C998        C999   1.406       .  A
C999       C1000   1.407       .  A
C999       F1006   1.358       .  S
C1000      C1001   1.408       .  A
C1000      F1005   1.357       .  S
C1001      C1002   1.405       .  A
C1002      F1003   1.358       .  S
C1007      C1008   1.416       .  A
C1007      C1012   1.396       .  A
C1007      F1014   1.358       .  S
C1008      C1009   1.418       .  A
C1009      C1010   1.392       .  A
C1009      F1016   1.356       .  S
C1010      C1011   1.397       .  A
C1010      F1015   1.359       .  S
C1011      C1012   1.398       .  A
C1012      F1013   1.358       .  S
C1017      C1022   1.405       .  A
C1017      F1024   1.357       .  S
C1018      C1019   1.410       .  A
C1019      C1020   1.399       .  A
C1019      F1026   1.358       .  S
C1020      C1021   1.402       .  A
C1020      F1025   1.358       .  S
C1022      F1023   1.357       .  S
C1027      C1028   1.410       .  A
C1027      C1032   1.408       .  A
C1027      F1034   1.357       .  S
C1028      C1029   1.407       .  A
C1029      C1030   1.401       .  A
C1029      F1036   1.358       .  S
C1030      C1031   1.410       .  A
C1030      F1035   1.358       .  S
C1031      C1032   1.406       .  A
C1032      F1033   1.356       .  S
C1037      C1038   1.394       .  A
C1037      C1042   1.393       .  A
C1037      F1044   1.359       .  S
C1038      C1039   1.396       .  A
C1039      C1040   1.393       .  A
C1039      F1046   1.358       .  S
C1040      C1041   1.416       .  A
C1040      F1045   1.358       .  S
C1041      C1042   1.423       .  A
C1042      F1043   1.351       .  S
C1047      C1048   1.408       .  A
C1047      C1052   1.408       .  A
C1047      F1054   1.358       .  S
C1048      C1049   1.407       .  A
C1049      C1050   1.401       .  A
C1049      F1056   1.358       .  S
C1050      C1051   1.404       .  A
C1050      F1055   1.358       .  S
C1051      C1052   1.408       .  A
C1052      F1053   1.357       .  S
C1057      C1058   1.417       .  A
C1057      C1062   1.393       .  A
C1057      F1064   1.354       .  S
C1058      C1059   1.417       .  A
C1059      C1060   1.392       .  A
C1059      F1066   1.358       .  S
C1060      C1061   1.395       .  A
C1060      F1065   1.358       .  S
C1061      C1062   1.398       .  A
C1062      F1063   1.359       .  S
C1067      C1068   1.409       .  A
C1067      C1072   1.403       .  A
C1067      F1074   1.357       .  S
C1069      C1070   1.397       .  A
C1069      F1076   1.358       .  S
C1070      C1071   1.402       .  A
C1070      F1075   1.358       .  S
C1072      F1073   1.357       .  S
C1077      C1078   1.404       .  A
C1077      C1082   1.404       .  A
C1077      F1084   1.358       .  S
C1078      C1079   1.405       .  A
C1079      C1080   1.398       .  A
C1079      F1086   1.358       .  S
C1080      C1081   1.404       .  A
C1080      F1085   1.358       .  S
C1081      C1082   1.406       .  A
C1082      F1083   1.357       .  S
C1087      C1088   1.416       .  A
C1087      C1092   1.396       .  A
C1087      F1094   1.358       .  S
C1088      C1089   1.417       .  A
C1089      C1090   1.394       .  A
C1089      F1096   1.356       .  S
C1090      C1091   1.397       .  A
C1090      F1095   1.358       .  S
C1091      C1092   1.398       .  A
C1092      F1093   1.358       .  S
C1097      C1098   1.399       .  A
C1097      C1102   1.399       .  A
C1097      F1104   1.358       .  S
C1099      C1100   1.404       .  A
C1099      F1106   1.358       .  S
C1100      F1105   1.356       .  S
C1101      C1102   1.414       .  A
C1102      F1103   1.358       .  S
C1107      C1112   1.402       .  A
C1107      F1114   1.357       .  S
C1108      C1109   1.410       .  A
C1109      C1110   1.402       .  A
C1109      F1116   1.358       .  S
C1110      F1115   1.358       .  S
C1111      C1112   1.402       .  A
C1112      F1113   1.358       .  S
C1117      C1122   1.404       .  A
C1117      F1124   1.358       .  S
C1118      C1119   1.406   1_554  A
C1119      C1120   1.398       .  A
C1119      F1126   1.358       .  S
C1120      C1121   1.406   1_556  A
C1120      F1125   1.358       .  S
C1122      F1123   1.354       .  S
C1127      C1132   1.402       .  A
C1127      F1134   1.358       .  S
C1128      C1129   1.415       .  A
C1129      C1130   1.404       .  A
C1129      F1136   1.358       .  S
C1130      C1131   1.402       .  A
C1130      F1135   1.358       .  S
C1132      F1133   1.356       .  S
C1137      C1142   1.392       .  A
C1137      F1144   1.358       .  S
C1138      C1139   1.410       .  A
C1139      C1140   1.402       .  A
C1139      F1146   1.358       .  S
C1140      F1145   1.358       .  S
C1141      C1142   1.407   1_554  A
C1142      F1143   1.358       .  S
C1147      C1148   1.403       .  A
C1147      C1152   1.399       .  A
C1147      F1154   1.355       .  S
C1149      C1150   1.397       .  A
C1149      F1156   1.358       .  S
C1150      F1155   1.358       .  S
C1151      C1152   1.406       .  A
C1152      F1153   1.358       .  S
C1157      C1162   1.402       .  A
C1157      F1164   1.358       .  S
C1158      C1159   1.398       .  A
C1159      C1160   1.398       .  A
C1159      F1166   1.358       .  S
C1160      C1161   1.416       .  A
C1160      F1165   1.358       .  S
C1162      F1163   1.356       .  S
C1167      C1168   1.409   1_556  A
C1167      C1172   1.394       .  A
C1167      F1174   1.358       .  S
C1169      C1170   1.398       .  A
C1169      F1176   1.358       .  S
C1170      C1171   1.412       .  A
C1170      F1175   1.358       .  S
C1172      F1173   1.358       .  S
C1177      C1182   1.401       .  A
C1177      F1184   1.358       .  S
C1178      C1179   1.398       .  A
C1179      C1180   1.397       .  A
C1179      F1186   1.358       .  S
C1180      C1181   1.415       .  A
C1180      F1185   1.358       .  S
C1182      F1183   1.355       .  S
C1187      C1188   1.407       .  A
C1187      C1192   1.397       .  A
C1187      F1194   1.358       .  S
C1189      C1190   1.402       .  A
C1189      F1196   1.358       .  S
C1190      F1195   1.358       .  S
C1191      C1192   1.406       .  A
C1192      F1193   1.358       .  S
C1197      C1202   1.402       .  A
C1197      F1204   1.358       .  S
C1198      C1199   1.411   1_554  A
C1199      C1200   1.396       .  A
C1199      F1206   1.358       .  S
C1200      F1205   1.358       .  S
C1201      C1202   1.413       .  A
C1202      F1203   1.358       .  S
C1207      C1208   1.412   1_556  A
C1207      C1212   1.399       .  A
C1207      F1214   1.358       .  S
C1209      C1210   1.401       .  A
C1209      F1216   1.358       .  S
C1210      C1211   1.413       .  A
C1210      F1215   1.358       .  S
C1212      F1213   1.358       .  S
