geometry optimzed in LAMMPS
_audit_creation_date              2020-12-01 
_audit_creation_method            'lammps2cif' 
_symmetry_space_group_name_H-M    'P1' 
_symmetry_Int_Tables_number       1 
_symmetry_cell_setting            triclinic 
loop_ 
_symmetry_equiv_pos_as_xyz 
  x,y,z 
_cell_length_a                    54.6710216 
_cell_length_b                    54.67115754350299 
_cell_length_c                    43.78249335490679 
_cell_angle_alpha                 90.00055428263767 
_cell_angle_beta                  90.00065466318759 
_cell_angle_gamma                 90.00064860132065 
loop_ 
_atom_site_label 
_atom_site_type_symbol 
_atom_site_fract_x 
_atom_site_fract_y 
_atom_site_fract_z 
_atom_site_charge 
N1          N  0.62796088  0.73755198  0.06496531    -0.25100
N2          N  0.64869250  0.73608891  0.04951147    -0.32900
C3          C  0.66741198  0.73430804  0.06929993     0.03300
C4          C  0.65789342  0.73468367  0.09845178     0.09300
C5          C  0.63290283  0.73672512  0.09504232    -0.03800
H6          H  0.68644235  0.73248062  0.06288579     0.10000
H7          H  0.61929430  0.73719270  0.11297910     0.11200
Cu8        Cu  0.65050088  0.73570262  0.00231336     0.44200
Cu9        Cu  0.59401357  0.73977735  0.04426675     0.42000
Cu10       Cu  0.59373446  0.73909135  0.96107546     0.43900
N11         N  0.64833594  0.73545131  0.95513519    -0.32500
N12         N  0.62746504  0.73666840  0.93994888    -0.26700
C13         C  0.63212689  0.73552125  0.90982436    -0.02800
C14         C  0.65708678  0.73352408  0.90609329     0.09400
C15         C  0.66687975  0.73350896  0.93511200     0.03200
H16         H  0.61835203  0.73577406  0.89207848     0.10900
H17         H  0.68597824  0.73184949  0.94128103     0.09900
N18         N  0.56254427  0.74114066  0.98768505    -0.33900
N19         N  0.56262588  0.74142068  0.01790891    -0.26100
C20         C  0.53942019  0.74239998  0.02800688    -0.01300
C21         C  0.52420484  0.74274252  0.00291381     0.07300
C22         C  0.53929658  0.74192526  0.97773508     0.05400
H23         H  0.53408252  0.74257275  0.05180140     0.10500
H24         H  0.53384731  0.74165801  0.95398051     0.09300
N25         N  0.34611356  0.73821660  0.06489625    -0.25100
N26         N  0.32531942  0.73711882  0.04953218    -0.32900
C27         C  0.30664683  0.73540623  0.06940062     0.03300
C28         C  0.31627363  0.73544688  0.09850538     0.09300
C29         C  0.34127084  0.73721887  0.09498508    -0.03800
H30         H  0.28757203  0.73386856  0.06307044     0.10000
H31         H  0.35494686  0.73740534  0.11285059     0.11200
Cu32       Cu  0.32341924  0.73717766  0.00233484     0.44200
Cu33       Cu  0.37998499  0.74025218  0.04405397     0.42000
Cu34       Cu  0.38016178  0.74055344  0.96085613     0.43900
N35         N  0.32548850  0.73730537  0.95515042    -0.32500
N36         N  0.34631826  0.73851043  0.93986932    -0.26700
C37         C  0.34154041  0.73756294  0.90975656    -0.02800
C38         C  0.31655343  0.73571407  0.90614149     0.09400
C39         C  0.30686700  0.73557566  0.93521090     0.03200
H40         H  0.35525392  0.73781552  0.89193841     0.10900
H41         H  0.28778624  0.73393926  0.94147057     0.09900
N42         N  0.41141594  0.74203953  0.98747191    -0.33900
N43         N  0.41133824  0.74189868  0.01769735    -0.26100
C44         C  0.43454177  0.74251673  0.02783049    -0.01300
C45         C  0.44976901  0.74307940  0.00276689     0.07300
C46         C  0.43467991  0.74275971  0.97755619     0.05400
H47         H  0.43986640  0.74230885  0.05162978     0.10500
H48         H  0.44014091  0.74277270  0.95380420     0.09300
N49         N  0.76122267  0.32292578  0.06488878    -0.25100
N50         N  0.76013983  0.30212205  0.04954340    -0.32900
C51         C  0.75841718  0.28346148  0.06942797     0.03300
C52         C  0.75843532  0.29310632  0.09852340     0.09300
C53         C  0.76020471  0.31810153  0.09498110    -0.03800
H54         H  0.75689012  0.26438215  0.06311473     0.10000
H55         H  0.76037843  0.33178852  0.11283398     0.11200
Cu56       Cu  0.76023651  0.30019291  0.00234787     0.44200
Cu57       Cu  0.76327233  0.35678393  0.04401645     0.42000
Cu58       Cu  0.76364310  0.35691078  0.96081926     0.43900
N59         N  0.76040088  0.30223396  0.95516154    -0.32500
N60         N  0.76161743  0.32305465  0.93986254    -0.26700
C61         C  0.76069410  0.31825890  0.90975320    -0.02800
C62         C  0.75884900  0.29326979  0.90615897     0.09400
C63         C  0.75868767  0.28360067  0.93523716     0.03200
H64         H  0.76096003  0.33196207  0.89192257     0.10900
H65         H  0.75704624  0.26452320  0.94151271     0.09900
N66         N  0.76511127  0.38818050  0.98740712    -0.33900
N67         N  0.76494516  0.38812037  0.01763237    -0.26100
C68         C  0.76556091  0.41132931  0.02774544    -0.01300
C69         C  0.76614845  0.42654174  0.00266902     0.07300
C70         C  0.76584589  0.41143852  0.97747125     0.05400
H71         H  0.76533646  0.41666760  0.05153954     0.10500
H72         H  0.76588182  0.41688582  0.95371464     0.09300
N73         N  0.76077943  0.60471284  0.06491886    -0.25100
N74         N  0.75932947  0.62545150  0.04947788    -0.32900
C75         C  0.75757200  0.64416498  0.06927835     0.03300
C76         C  0.75794942  0.63463507  0.09842449     0.09300
C77         C  0.75996718  0.60964405  0.09499920    -0.03800
H78         H  0.75575757  0.66319920  0.06287642     0.10000
H79         H  0.76042763  0.59602816  0.11292784     0.11200
Cu80       Cu  0.75892647  0.62727749  0.00228082     0.44200
Cu81       Cu  0.76296536  0.57077179  0.04419882     0.42000
Cu82       Cu  0.76224159  0.57052430  0.96100688     0.43900
N83         N  0.75865108  0.62513111  0.95510142    -0.32500
N84         N  0.75984069  0.60426492  0.93990196    -0.26700
C85         C  0.75868158  0.60893900  0.90978108    -0.02800
C86         C  0.75670543  0.63390205  0.90606613     0.09400
C87         C  0.75671503  0.64368423  0.93509061     0.03200
H88         H  0.75891091  0.59517068  0.89202742     0.10900
H89         H  0.75507581  0.66278130  0.94127210     0.09900
N90         N  0.76427435  0.53932277  0.98759717    -0.33900
N91         N  0.76456797  0.53939333  0.01782089    -0.26100
C92         C  0.76553270  0.51618349  0.02790530    -0.01300
C93         C  0.76585138  0.50097699  0.00280370     0.07300
C94         C  0.76503538  0.51607807  0.97763373     0.05400
H95         H  0.76571330  0.51083721  0.05169659     0.10500
H96         H  0.76475439  0.51063748  0.95387598     0.09300
N97         N  0.34754976  0.19160365  0.06481001    -0.25100
N98         N  0.32679085  0.19309883  0.04941742    -0.32900
C99         C  0.30811454  0.19493538  0.06926091     0.03300
C100        C  0.31769001  0.19456267  0.09838406     0.09300
C101        C  0.34266918  0.19246462  0.09490090    -0.03800
H102        H  0.28907394  0.19679203  0.06290261     0.10000
H103        H  0.35631177  0.19197589  0.11279705     0.11200
Cu104      Cu  0.32489007  0.19343381  0.00222366     0.44200
Cu105      Cu  0.38145030  0.18927667  0.04401180     0.42000
Cu106      Cu  0.38157006  0.18984473  0.96082258     0.43900
N107        N  0.32696517  0.19360061  0.95503797    -0.32500
N108        N  0.34780375  0.19230862  0.93979264    -0.26700
C109        C  0.34308619  0.19341051  0.90967895    -0.02800
C110        C  0.31812376  0.19545656  0.90601666     0.09400
C111        C  0.30838703  0.19554717  0.93506450     0.03200
H112        H  0.35682602  0.19309267  0.89189269     0.10900
H113        H  0.28930419  0.19725845  0.94128553     0.09900
N114        N  0.41280872  0.18777005  0.98734007    -0.33900
N115        N  0.41278331  0.18753368  0.01756450    -0.26100
C116        C  0.43600555  0.18652550  0.02759729    -0.01300
C117        C  0.45117341  0.18611749  0.00246173     0.07300
C118        C  0.43603647  0.18692720  0.97732426     0.05400
H119        H  0.44138738  0.18637927  0.05137649     0.10500
H120        H  0.44144185  0.18715216  0.95355351     0.09300
N121        N  0.62916615  0.19037783  0.93969639    -0.25100
N122        N  0.64996870  0.19157452  0.95503715    -0.32900
C123        C  0.66862344  0.19334482  0.93515240     0.03300
C124        C  0.65898744  0.19324248  0.90605644     0.09300
C125        C  0.63399556  0.19137194  0.90959915    -0.03800
H126        H  0.68769261  0.19498545  0.94146798     0.10000
H127        H  0.62031257  0.19113625  0.89174260     0.11200
Cu128      Cu  0.65195678  0.19164428  0.00222728     0.44200
Cu129      Cu  0.59528648  0.18828403  0.96058349     0.42000
Cu130      Cu  0.59532133  0.18846425  0.04378066     0.43900
N131        N  0.64997244  0.19165940  0.04941923    -0.32500
N132        N  0.62915213  0.19052061  0.06472252    -0.26700
C133        C  0.63393840  0.19150669  0.09482617    -0.02800
C134        C  0.65892636  0.19331372  0.09842006     0.09400
C135        C  0.66860615  0.19338780  0.06934300     0.03200
H136        H  0.62022997  0.19129369  0.11265177     0.10900
H137        H  0.68768956  0.19496301  0.06306927     0.09900
N138        N  0.56401476  0.18683956  0.01733532    -0.33900
N139        N  0.56398658  0.18674295  0.98710951    -0.26100
C140        C  0.54073839  0.18603878  0.97713207    -0.01300
C141        C  0.52560850  0.18568332  0.00230376     0.07300
C142        C  0.54079514  0.18620903  0.02740697     0.05400
H143        H  0.53531561  0.18606870  0.95336612     0.10500
H144        H  0.53543172  0.18639080  0.05119285     0.09300
N145        N  0.21367814  0.60611387  0.06473492    -0.25100
N146        N  0.21484536  0.62692316  0.04941168    -0.32900
C147        C  0.21657287  0.64556863  0.06931836     0.03300
C148        C  0.21646821  0.63590796  0.09840518     0.09300
C149        C  0.21464427  0.61091919  0.09483471    -0.03800
H150        H  0.21816853  0.66464640  0.06302697     0.10000
H151        H  0.21440690  0.59722251  0.11267421     0.11200
Cu152      Cu  0.21486872  0.62887673  0.00221773     0.44200
Cu153      Cu  0.21161316  0.57227093  0.04382603     0.42000
Cu154      Cu  0.21150305  0.57218253  0.96062938     0.43900
N155        N  0.21483468  0.62685785  0.95502963    -0.32500
N156        N  0.21363641  0.60604600  0.93970904    -0.26700
C157        C  0.21465325  0.61085498  0.90960791    -0.02800
C158        C  0.21654031  0.63584337  0.90604161     0.09400
C159        C  0.21662853  0.64549856  0.93512766     0.03200
H160        H  0.21441866  0.59716072  0.89176505     0.10900
H161        H  0.21827281  0.66457098  0.94142520     0.09900
N162        N  0.20991884  0.54090159  0.98718501    -0.33900
N163        N  0.20999000  0.54094848  0.01741080    -0.26100
C164        C  0.20933662  0.51773550  0.02750417    -0.01300
C165        C  0.20882272  0.50253402  0.00241468     0.07300
C166        C  0.20920882  0.51764799  0.97722911     0.05400
H167        H  0.20949590  0.51238662  0.05129525     0.10500
H168        H  0.20925586  0.51221068  0.95346860     0.09300
N169        N  0.21471699  0.32445077  0.06486063    -0.25100
N170        N  0.21620129  0.30369828  0.04945325    -0.32900
C171        C  0.21804690  0.28501343  0.06928302     0.03300
C172        C  0.21769200  0.29457687  0.09841270     0.09300
C173        C  0.21559459  0.31955766  0.09494762    -0.03800
H174        H  0.21989739  0.26597551  0.06291085     0.10000
H175        H  0.21511725  0.33319253  0.11285270     0.11200
Cu176      Cu  0.21651134  0.30181824  0.00225776     0.44200
Cu177      Cu  0.21238258  0.35835979  0.04408636     0.42000
Cu178      Cu  0.21290592  0.35851433  0.96089493     0.43900
N179        N  0.21665652  0.30391226  0.95507304    -0.32500
N180        N  0.21535831  0.32475693  0.93984170    -0.26700
C181        C  0.21644702  0.32005160  0.90972430    -0.02800
C182        C  0.21849077  0.29509066  0.90604488     0.09400
C183        C  0.21859398  0.28534220  0.93508655     0.03200
H184        H  0.21612254  0.33379860  0.89194713     0.10900
H185        H  0.22030818  0.26625713  0.94129444     0.09900
N186        N  0.21085214  0.38974115  0.98743588    -0.33900
N187        N  0.21063214  0.38970351  0.01766052    -0.26100
C188        C  0.20963651  0.41292187  0.02770909    -0.01300
C189        C  0.20921953  0.42809980  0.00258336     0.07300
C190        C  0.21001112  0.41297302  0.97743567     0.05400
H191        H  0.20950595  0.41829408  0.05149207     0.10500
H192        H  0.21022628  0.41838803  0.95366836     0.09300
N193        N  0.71304546  0.82276837  0.56492332    -0.25100
N194        N  0.71444463  0.80202851  0.54947716    -0.32900
C195        C  0.71618429  0.78330996  0.56927204     0.03300
C196        C  0.71584940  0.79283722  0.59842050     0.09300
C197        C  0.71387515  0.81783266  0.59500193    -0.03800
H198        H  0.71796771  0.76427373  0.56286390     0.10000
H199        H  0.71346436  0.83144847  0.61293343     0.11200
Cu200      Cu  0.71483208  0.80020806  0.50227922     0.44200
Cu201      Cu  0.71092236  0.85671506  0.54420622     0.42000
Cu202      Cu  0.71164893  0.85696552  0.46100787     0.43900
N203        N  0.71513098  0.80235337  0.45509959    -0.32500
N204        N  0.71398933  0.82322164  0.43989949    -0.26700
C205        C  0.71516743  0.81854579  0.40977988    -0.02800
C206        C  0.71710504  0.79357927  0.40606655     0.09400
C207        C  0.71705368  0.78379727  0.43509077     0.03200
H208        H  0.71498572  0.83231536  0.39202662     0.05300
H209        H  0.71866428  0.76469843  0.44127416     0.09900
N210        N  0.70972137  0.88817053  0.48760481    -0.33900
N211        N  0.70942546  0.88809940  0.51782861    -0.26100
C212        C  0.70857670  0.91131333  0.52791543    -0.01300
C213        C  0.70833419  0.92652295  0.50281578     0.07300
C214        C  0.70907806  0.91141946  0.47764432     0.05400
H215        H  0.70844275  0.91665973  0.55170765     0.10500
H216        H  0.70940925  0.91686059  0.45388855     0.09300
N217        N  0.71494052  0.10450744  0.56488506    -0.25100
N218        N  0.71632622  0.12529125  0.54953614    -0.32900
C219        C  0.71829010  0.14392993  0.56941831     0.03300
C220        C  0.71811249  0.13429138  0.59851580     0.09300
C221        C  0.71599759  0.10932278  0.59497758    -0.03800
H222        H  0.72007836  0.16298543  0.56310299     0.10000
H223        H  0.71560949  0.09564352  0.61283411     0.11200
Cu224      Cu  0.71627855  0.12721519  0.50234117     0.44200
Cu225      Cu  0.71243207  0.07067719  0.54401965     0.42000
Cu226      Cu  0.71207570  0.07054515  0.46081807     0.43900
N227        N  0.71607499  0.12517178  0.45515620    -0.32500
N228        N  0.71456415  0.10436925  0.43985901    -0.26700
C229        C  0.71553270  0.10915137  0.40974863    -0.02800
C230        C  0.71771735  0.13411269  0.40615245     0.09400
C231        C  0.71802863  0.14377962  0.43522991     0.03200
H232        H  0.71505808  0.09545354  0.39191782     0.10900
H233        H  0.71992375  0.16283366  0.44150297     0.09900
N234        N  0.71019067  0.03930156  0.48741271    -0.33900
N235        N  0.71035274  0.03936314  0.51763810    -0.26100
C236        C  0.70945309  0.01616454  0.52775432    -0.01300
C237        C  0.70868230  0.00095742  0.50268017     0.07300
C238        C  0.70917446  0.01605304  0.47748037     0.05400
H239        H  0.70962611  0.01082604  0.55154886     0.10500
H240        H  0.70909318  0.01060313  0.45372428     0.09300
N241        N  0.84597576  0.68989612  0.56497156    -0.25100
N242        N  0.82524101  0.69127925  0.54951237    -0.32900
C243        C  0.80651420  0.69301895  0.56929513     0.03300
C244        C  0.81603076  0.69270116  0.59844926     0.09300
C245        C  0.84102848  0.69073666  0.59504679    -0.03800
H246        H  0.78747930  0.69479081  0.56287469     0.10000
H247        H  0.85463727  0.69033991  0.61298588     0.11200
Cu248      Cu  0.82343852  0.69164621  0.50231308     0.44200
Cu249      Cu  0.87993133  0.68777960  0.54427600     0.42000
Cu250      Cu  0.88021273  0.68846813  0.46107716     0.43900
N251        N  0.82560127  0.69192382  0.45513439    -0.32500
N252        N  0.84647579  0.69078404  0.43994726    -0.26700
C253        C  0.84181074  0.69194582  0.40982406    -0.02800
C254        C  0.81684467  0.69387043  0.40609473     0.09400
C255        C  0.80705190  0.69382879  0.43511326     0.03200
H256        H  0.85558700  0.69176200  0.39207908     0.10900
H257        H  0.78794929  0.69543431  0.44128448     0.09900
N258        N  0.91140823  0.68656581  0.48769430    -0.33900
N259        N  0.91132638  0.68628387  0.51791824    -0.26100
C260        C  0.93453718  0.68544923  0.52801875    -0.01300
C261        C  0.94975580  0.68520154  0.50292756     0.07300
C262        C  0.93466090  0.68592742  0.47774721     0.05400
H263        H  0.93987516  0.68532851  0.55181408     0.10500
H264        H  0.94011017  0.68624994  0.45399454     0.09300
N265        N  0.12777867  0.69179558  0.56489128    -0.25100
N266        N  0.14855237  0.69319648  0.54952314    -0.32900
C267        C  0.16720370  0.69514760  0.56938886     0.03300
C268        C  0.15758401  0.69494551  0.59849578     0.09300
C269        C  0.13261332  0.69282963  0.59498022    -0.03800
H270        H  0.18625481  0.69694562  0.56305644     0.10000
H271        H  0.11894570  0.69242712  0.61284969     0.11200
Cu272      Cu  0.15044562  0.69318819  0.50232632     0.44200
Cu273      Cu  0.09393491  0.68930152  0.54405709     0.42000
Cu274      Cu  0.09375095  0.68901590  0.46085396     0.43900
N275        N  0.14837360  0.69302148  0.45514320    -0.32500
N276        N  0.12756153  0.69152211  0.43986412    -0.26700
C277        C  0.13232525  0.69251257  0.40975042    -0.02800
C278        C  0.15728449  0.69469950  0.40613299     0.09400
C279        C  0.16696916  0.69498925  0.43520151     0.03200
H280        H  0.11861607  0.69204985  0.39193154     0.10900
H281        H  0.18602824  0.69687851  0.44145897     0.09900
N282        N  0.06252475  0.68710481  0.48747747    -0.33900
N283        N  0.06260464  0.68724096  0.51770301    -0.26100
C284        C  0.03941216  0.68632823  0.52783994    -0.01300
C285        C  0.02419016  0.68557590  0.50277882     0.07300
C286        C  0.03927052  0.68609240  0.47756573     0.05400
H287        H  0.03408803  0.68647870  0.55163955     0.10500
H288        H  0.03380634  0.68602956  0.45381466     0.09300
C289        C  0.72164606  0.71670826  0.77804024     0.04500
C290        C  0.73986760  0.69849268  0.77804052     0.04500
C291        C  0.75411010  0.69473538  0.75189353    -0.16000
C292        C  0.75036269  0.70898960  0.72575256     0.04500
C293        C  0.73213937  0.72720572  0.72575178     0.04500
C294        C  0.71788359  0.73094862  0.75189251    -0.16000
H295        H  0.70385910  0.74498794  0.75190015     0.06500
H296        H  0.76815426  0.68071582  0.75190180     0.06500
C297        C  0.72354499  0.71847429  0.22578225     0.04500
C298        C  0.74176759  0.70025766  0.22578189     0.04500
C299        C  0.75602572  0.69651694  0.25192118    -0.16000
C300        C  0.75226484  0.71075881  0.27806852     0.04500
C301        C  0.73404345  0.72897476  0.27806856     0.04500
C302        C  0.71980016  0.73273111  0.25192154    -0.16000
H303        H  0.70575524  0.74674998  0.25192976     0.06500
H304        H  0.77004887  0.68247630  0.25192921     0.06500
N305        N  0.26050042  0.82455032  0.56473842    -0.25100
N306        N  0.25911841  0.80375473  0.54941346    -0.32900
C307        C  0.25723880  0.78512416  0.56931989     0.03300
C308        C  0.25746914  0.79478019  0.59840830     0.09300
C309        C  0.25952575  0.81975092  0.59483919    -0.03800
H310        H  0.25546426  0.76606226  0.56302819     0.10000
H311        H  0.25992188  0.83344217  0.61268122     0.11200
Cu312      Cu  0.25904529  0.80180501  0.50221934     0.44200
Cu313      Cu  0.26287608  0.85837352  0.54383191     0.42000
Cu314      Cu  0.26297853  0.85846348  0.46062937     0.43900
N315        N  0.25912017  0.80382206  0.45503148    -0.32500
N316        N  0.26052986  0.82462024  0.43971037    -0.26700
C317        C  0.25949970  0.81981789  0.40960804    -0.02800
C318        C  0.25738073  0.79484802  0.40604202     0.09400
C319        C  0.25717210  0.78519706  0.43512887     0.03200
H320        H  0.25989085  0.83350648  0.39176364     0.10900
H321        H  0.25535203  0.76614018  0.44142583     0.09900
N322        N  0.26487623  0.88972511  0.48719004    -0.33900
N323        N  0.26480798  0.88967788  0.51741598    -0.26100
C324        C  0.26570113  0.91288259  0.52751102    -0.01300
C325        C  0.26636914  0.92807891  0.50242276     0.07300
C326        C  0.26582429  0.91297061  0.47723594     0.05400
H327        H  0.26559997  0.91823200  0.55130254     0.10500
H328        H  0.26583063  0.91840885  0.45347616     0.09300
N329        N  0.26199981  0.10620580  0.56486561    -0.25100
N330        N  0.26067836  0.12696588  0.54945169    -0.32900
C331        C  0.25894094  0.14566613  0.56927441     0.03300
C332        C  0.25919584  0.13610542  0.59840691     0.09300
C333        C  0.26112108  0.11110965  0.59495020    -0.03800
H334        H  0.25721680  0.16471382  0.56289474     0.10000
H335        H  0.26146884  0.09747326  0.61285874     0.11200
Cu336      Cu  0.26039943  0.12883936  0.50225514     0.44200
Cu337      Cu  0.26409597  0.07227825  0.54409599     0.42000
Cu338      Cu  0.26355626  0.07212118  0.46089477     0.43900
N339        N  0.26020854  0.12674730  0.45507012    -0.32500
N340        N  0.26133962  0.10589345  0.43983745    -0.26700
C341        C  0.26024492  0.11060534  0.40972166    -0.02800
C342        C  0.25837370  0.13558047  0.40604495     0.09400
C343        C  0.25837637  0.14532977  0.43508667     0.03200
H344        H  0.26043702  0.09685533  0.39194550     0.10900
H345        H  0.25679208  0.16442576  0.44129788     0.09900
N346        N  0.26537464  0.04088360  0.48744311    -0.33900
N347        N  0.26560148  0.04092156  0.51766794    -0.26100
C348        C  0.26640490  0.01769616  0.52771781    -0.01300
C349        C  0.26668991  0.00251353  0.50259327     0.07300
C350        C  0.26601885  0.01764476  0.47744481     0.05400
H351        H  0.26648720  0.01232417  0.55150137     0.10500
H352        H  0.26574490  0.01222982  0.45367854     0.09300
C353        C  0.25136406  0.71931653  0.77848418     0.04500
C354        C  0.23313341  0.70110798  0.77848164     0.04500
C355        C  0.21888065  0.69736851  0.75233812    -0.16000
C356        C  0.22264595  0.71161194  0.72619367     0.04500
C357        C  0.24087680  0.72981918  0.72619478     0.04500
C358        C  0.25512353  0.73356593  0.75234188    -0.16000
H359        H  0.26916668  0.74758666  0.75234111     0.06500
H360        H  0.20484242  0.68334235  0.75233416     0.06500
C361        C  0.25108714  0.71915011  0.22617303     0.04500
C362        C  0.23285289  0.70094645  0.22617016     0.04500
C363        C  0.21860009  0.69720447  0.25231205    -0.16000
C364        C  0.22235953  0.71145231  0.27845599     0.04500
C365        C  0.24059103  0.72966018  0.27845667     0.04500
C366        C  0.25484731  0.73339776  0.25231563    -0.16000
H367        H  0.26889043  0.74741834  0.25231631     0.06500
H368        H  0.20455888  0.68318149  0.25231025     0.06500
N369        N  0.84767278  0.23723421  0.56472707    -0.25100
N370        N  0.82686799  0.23585428  0.54942126    -0.32900
C371        C  0.80825080  0.23395447  0.56934416     0.03300
C372        C  0.81792533  0.23416923  0.59842321     0.09300
C373        C  0.84289302  0.23623787  0.59483158    -0.03800
H374        H  0.78918527  0.23217925  0.56306959     0.10000
H375        H  0.85659540  0.23663029  0.61266055     0.11200
Cu376      Cu  0.82488852  0.23581623  0.50222903     0.44200
Cu377      Cu  0.88148085  0.23964243  0.54378863     0.42000
Cu378      Cu  0.88151705  0.23981620  0.46058480     0.43900
N379        N  0.82687395  0.23593171  0.45503916    -0.32500
N380        N  0.84766102  0.23736622  0.43969815    -0.26700
C381        C  0.84283904  0.23635765  0.40959960    -0.02800
C382        C  0.81786794  0.23422671  0.40605695     0.09400
C383        C  0.80823659  0.23398875  0.43515361     0.03200
H384        H  0.85651559  0.23677023  0.39174169     0.10900
H385        H  0.78918539  0.23215113  0.44146822     0.09900
N386        N  0.91279475  0.24170843  0.48711686    -0.33900
N387        N  0.91276634  0.24161401  0.51734277    -0.26100
C388        C  0.93597664  0.24251222  0.52741657    -0.01300
C389        C  0.95115710  0.24321100  0.50231480     0.07300
C390        C  0.93603369  0.24267886  0.47714159     0.05400
H391        H  0.94134069  0.24239445  0.55120277     0.10500
H392        H  0.94145737  0.24270978  0.45337657     0.09300
N393        N  0.12926088  0.23897418  0.56481426    -0.25100
N394        N  0.15002808  0.23765568  0.54941470    -0.32900
C395        C  0.16872054  0.23593131  0.56925066     0.03300
C396        C  0.15914737  0.23619189  0.59837670     0.09300
C397        C  0.13415230  0.23810659  0.59490250    -0.03800
H398        H  0.18777171  0.23420986  0.56288429     0.10000
H399        H  0.12050797  0.23845284  0.61280188     0.11200
Cu400      Cu  0.15192162  0.23735835  0.50221949     0.44200
Cu401      Cu  0.09534095  0.24104701  0.54402153     0.42000
Cu402      Cu  0.09521774  0.24046303  0.46082151     0.43900
N403        N  0.14984812  0.23713926  0.45503326    -0.32500
N404        N  0.12899941  0.23825054  0.43978706    -0.26700
C405        C  0.13372310  0.23713711  0.40967536    -0.02800
C406        C  0.15870044  0.23527432  0.40601533     0.09400
C407        C  0.16843898  0.23530158  0.43506271     0.03200
H408        H  0.11997927  0.23730968  0.39189065     0.10900
H409        H  0.18753341  0.23372892  0.44128680     0.09900
N410        N  0.06396819  0.24227975  0.48734786    -0.33900
N411        N  0.06399428  0.24252297  0.51757248    -0.26100
C412        C  0.04076455  0.24331816  0.52760742    -0.01300
C413        C  0.02559146  0.24358055  0.50247355     0.07300
C414        C  0.04073276  0.24290481  0.47733474     0.05400
H415        H  0.03538321  0.24340941  0.55138733     0.10500
H416        H  0.03532720  0.24261385  0.45356529     0.09300
C417        C  0.74251985  0.22802109  0.77853574     0.04500
C418        C  0.72431267  0.20978891  0.77853430     0.04500
C419        C  0.72057537  0.19553385  0.75239228    -0.16000
C420        C  0.73481816  0.19929979  0.72624745     0.04500
C421        C  0.75302406  0.21753201  0.72624754     0.04500
C422        C  0.75677018  0.23177961  0.75239399    -0.16000
H423        H  0.77078824  0.24582551  0.75239144     0.06500
H424        H  0.70654914  0.18149565  0.75238834     0.06500
C425        C  0.74211185  0.22797111  0.22622511     0.04500
C426        C  0.72390929  0.20973579  0.22622186     0.04500
C427        C  0.72016765  0.19548309  0.25236396    -0.16000
C428        C  0.73441643  0.19924206  0.27850734     0.04500
C429        C  0.75262349  0.21747447  0.27850806     0.04500
C430        C  0.75635910  0.23173211  0.25236774    -0.16000
H431        H  0.77038015  0.24577535  0.25236778     0.06500
H432        H  0.70614685  0.18143977  0.25236109     0.06500
C433        C  0.23516904  0.23038382  0.77807814     0.04500
C434        C  0.25338643  0.21216394  0.77807805     0.04500
C435        C  0.25713538  0.19791234  0.75193651    -0.16000
C436        C  0.24287470  0.20165286  0.72579927     0.04500
C437        C  0.22465696  0.21987429  0.72579894     0.04500
C438        C  0.22091831  0.23413537  0.75193627    -0.16000
H439        H  0.20688091  0.24816101  0.75194200     0.06500
H440        H  0.27115857  0.18387242  0.75194269     0.06500
C441        C  0.23401542  0.22908672  0.22584767     0.04500
C442        C  0.25223332  0.21086567  0.22584784     0.04500
C443        C  0.25596881  0.19660160  0.25198294    -0.16000
C444        C  0.24171468  0.20034980  0.27812258     0.04500
C445        C  0.22349713  0.21856993  0.27812206     0.04500
C446        C  0.21975146  0.23282436  0.25198219    -0.16000
H447        H  0.20572799  0.24686411  0.25198732     0.06500
H448        H  0.27000646  0.18257553  0.25198844     0.06500
C449        C  0.20970679  0.22421889  0.69920989    -0.16300
C450        C  0.19758753  0.22751088  0.67661611     0.07800
C451        C  0.18384243  0.23098324  0.64973541     0.09600
C452        C  0.17242158  0.23360053  0.62645046    -0.17100
C453        C  0.17181208  0.23255713  0.37784578    -0.16300
C454        C  0.18306001  0.22986054  0.35444643     0.07800
C455        C  0.19661234  0.22631497  0.32743164     0.09600
C456        C  0.20861241  0.22296985  0.30475270    -0.17100
C457        C  0.97736690  0.24357309  0.50238831    -0.11100
C458        C  0.99937931  0.24368252  0.50246264    -0.12600
C459        C  0.76754366  0.22185660  0.30511380    -0.16300
C460        C  0.77962444  0.22520188  0.32772746     0.07800
C461        C  0.79330909  0.22876392  0.35463768     0.09600
C462        C  0.80466911  0.23148291  0.37795069    -0.17100
C463        C  0.76790748  0.22193999  0.69961799    -0.16300
C464        C  0.77991903  0.22528321  0.67694812     0.07800
C465        C  0.79349753  0.22881327  0.64995080     0.09600
C466        C  0.80477507  0.23148697  0.62656970    -0.17100
C467        C  0.25567196  0.14868084  0.37786483    -0.16300
C468        C  0.25298666  0.15992155  0.35445803     0.07800
C469        C  0.24945124  0.17346794  0.32743655     0.09600
C470        C  0.24611163  0.18546547  0.30475427    -0.17100
C471        C  0.25659692  0.14939120  0.62647103    -0.16300
C472        C  0.25397678  0.16082106  0.64974852     0.07800
C473        C  0.25050478  0.17457507  0.67662205     0.09600
C474        C  0.24721515  0.18669967  0.69921183    -0.17100
C475        C  0.26671437  0.95428894  0.50251811    -0.11100
C476        C  0.26680925  0.97630142  0.50259575    -0.12600
C477        C  0.25480302  0.78161186  0.62654407    -0.16300
C478        C  0.25213964  0.77032053  0.64991664     0.07800
C479        C  0.24861812  0.75672824  0.67690487     0.09600
C480        C  0.24528036  0.74470784  0.69956867    -0.17100
C481        C  0.25462499  0.78166614  0.37792527    -0.16300
C482        C  0.25189768  0.77031910  0.35460399     0.07800
C483        C  0.24832798  0.75664748  0.32768515     0.09600
C484        C  0.24497750  0.74457505  0.30506583    -0.17100
C485        C  0.20744732  0.70707770  0.30506986    -0.16300
C486        C  0.19538800  0.70373297  0.32770096     0.07800
C487        C  0.18174286  0.70016839  0.35464132     0.09600
C488        C  0.17042535  0.69744637  0.37798552    -0.17100
C489        C  0.17078368  0.69766305  0.62660081    -0.16300
C490        C  0.18209941  0.70035486  0.64994997     0.07800
C491        C  0.19571564  0.70389150  0.67691629     0.09600
C492        C  0.20775005  0.70722734  0.69956901    -0.17100
C493        C  0.97596806  0.68509015  0.50298279    -0.11100
C494        C  0.99798056  0.68520114  0.50291185    -0.12600
C495        C  0.80270802  0.69528856  0.62648750    -0.16300
C496        C  0.79124841  0.69790203  0.64974321     0.07800
C497        C  0.77746437  0.70136850  0.67659381     0.09600
C498        C  0.76532229  0.70465401  0.69916977    -0.17100
C499        C  0.80379097  0.69664321  0.37789164    -0.16300
C500        C  0.79258988  0.69938016  0.35446447     0.07800
C501        C  0.77908800  0.70296472  0.32741829     0.09600
C502        C  0.76712271  0.70633639  0.30471675    -0.17100
C503        C  0.72084464  0.14747389  0.62663113    -0.16300
C504        C  0.72354566  0.15877679  0.64998823     0.07800
C505        C  0.72708988  0.17238063  0.67696262     0.09600
C506        C  0.73043019  0.18440767  0.69962036    -0.17100
C507        C  0.73004759  0.18432437  0.30511788    -0.16300
C508        C  0.72671049  0.17225713  0.32774414     0.07800
C509        C  0.72315745  0.15859985  0.35467726     0.09600
C510        C  0.72044752  0.14727010  0.37801441    -0.17100
C511        C  0.70821261  0.95273512  0.50285882    -0.11100
C512        C  0.70831571  0.97474763  0.50279184    -0.12600
C513        C  0.71989496  0.78051596  0.37787306    -0.16300
C514        C  0.72264378  0.76930816  0.35445312     0.07800
C515        C  0.72623899  0.75580029  0.32741388     0.09600
C516        C  0.72961680  0.74383238  0.30471594    -0.17100
C517        C  0.72779797  0.74216169  0.69916718    -0.16300
C518        C  0.72450953  0.75429879  0.67658765     0.07800
C519        C  0.72104277  0.76807473  0.64973062     0.09600
C520        C  0.71843147  0.77952591  0.62646804    -0.17100
C521        C  0.22030956  0.28131086  0.12648797    -0.16300
C522        C  0.22293097  0.26989790  0.14977770     0.07800
C523        C  0.22639507  0.25615896  0.17666421     0.09600
C524        C  0.22967791  0.24404062  0.19926039    -0.17100
C525        C  0.22121115  0.28200631  0.87785633    -0.16300
C526        C  0.22389958  0.27078131  0.85443848     0.07800
C527        C  0.22743128  0.25725153  0.82740356     0.09600
C528        C  0.23076896  0.24526345  0.80471312    -0.17100
C529        C  0.20885906  0.45430961  0.00258441    -0.11100
C530        C  0.20874140  0.47632193  0.00250773    -0.12600
C531        C  0.22846485  0.68604529  0.19955074    -0.16300
C532        C  0.22515494  0.67401250  0.17689066     0.07800
C533        C  0.22168023  0.66040307  0.14990628     0.09600
C534        C  0.21906577  0.64909555  0.12653709    -0.17100
C535        C  0.21922715  0.64904523  0.87792930    -0.16300
C536        C  0.22190632  0.66040901  0.85461228     0.07800
C537        C  0.22543190  0.67409782  0.82769831     0.09600
C538        C  0.22875772  0.68618233  0.80508374    -0.17100
C539        C  0.70901328  0.20534271  0.19959903    -0.16300
C540        C  0.69698899  0.20202738  0.17693302     0.07800
C541        C  0.68339267  0.19854465  0.14993980     0.09600
C542        C  0.67209778  0.19592221  0.12656238    -0.17100
C543        C  0.67220844  0.19591231  0.87795550    -0.16300
C544        C  0.68358633  0.19858094  0.85464725     0.07800
C545        C  0.69728895  0.20209767  0.82774227     0.09600
C546        C  0.70938192  0.20541789  0.80513335    -0.17100
C547        C  0.47738343  0.18574543  0.00244850    -0.11100
C548        C  0.49939593  0.18561667  0.00237473    -0.12600
C549        C  0.30443578  0.19716781  0.12646975    -0.16300
C550        C  0.29303098  0.19978198  0.14976695     0.07800
C551        C  0.27929949  0.20324223  0.17666014     0.09600
C552        C  0.26718529  0.20652505  0.19925976    -0.17100
C553        C  0.30502800  0.19818771  0.87783796    -0.16300
C554        C  0.29379491  0.20088346  0.85442744     0.07800
C555        C  0.28025814  0.20442133  0.82739920     0.09600
C556        C  0.26826682  0.20776212  0.80471208    -0.17100
C557        C  0.74610083  0.68529571  0.19920039    -0.16300
C558        C  0.74937128  0.67315758  0.17661765     0.07800
C559        C  0.75280802  0.65938524  0.14975185     0.09600
C560        C  0.75539246  0.64794001  0.12648007    -0.17100
C561        C  0.75394151  0.64696163  0.87786652    -0.16300
C562        C  0.75121897  0.65816425  0.85443830     0.07800
C563        C  0.74765212  0.67166673  0.82738950     0.09600
C564        C  0.74428991  0.68363314  0.80468706    -0.17100
C565        C  0.76616396  0.47476645  0.00284379    -0.11100
C566        C  0.76625132  0.45275388  0.00277728    -0.12600
C567        C  0.74647433  0.24288527  0.19961089    -0.16300
C568        C  0.74976483  0.25493374  0.17695975     0.07800
C569        C  0.75322349  0.26856602  0.14999050     0.09600
C570        C  0.75583233  0.27989462  0.12663655    -0.17100
C571        C  0.75624769  0.28007919  0.87802532    -0.16300
C572        C  0.75362886  0.26872315  0.85469129     0.07800
C573        C  0.75015913  0.25503934  0.82776144     0.09600
C574        C  0.74686842  0.24295429  0.80513880    -0.17100
C575        C  0.30304561  0.73285427  0.12660820    -0.16300
C576        C  0.29170484  0.73025115  0.14995400     0.07800
C577        C  0.27806069  0.72679741  0.17691506     0.09600
C578        C  0.26600519  0.72350979  0.19956118    -0.17100
C579        C  0.26628983  0.72367235  0.80509190    -0.16300
C580        C  0.27836549  0.72697251  0.82772025     0.07800
C581        C  0.29203569  0.73045726  0.85465794     0.09600
C582        C  0.30337917  0.73309154  0.87799887    -0.17100
C583        C  0.47598145  0.74317098  0.00289605    -0.11100
C584        C  0.49799417  0.74307193  0.00296616    -0.12600
C585        C  0.70858072  0.72280335  0.19920171    -0.16300
C586        C  0.69643853  0.72607415  0.17662248     0.07800
C587        C  0.68265947  0.72951648  0.14976323     0.09600
C588        C  0.67120730  0.73211050  0.12649845    -0.17100
C589        C  0.70678664  0.72112717  0.80468760    -0.16300
C590        C  0.69482354  0.72448608  0.82739345     0.07800
C591        C  0.68132811  0.72804816  0.85444861     0.09600
C592        C  0.67013392  0.73076599  0.87788390    -0.17100
loop_ 
_geom_bond_atom_site_label_1 
_geom_bond_atom_site_label_2 
_geom_bond_distance 
_geom_bond_site_symmetry_2 
_ccdc_geom_bond_type 
N1            N2   1.322       .  A
N1            C5   1.345       .  A
N1           Cu9   2.069       .  S
N2            C3   1.344       .  A
N2           Cu8   2.069       .  S
C3            C4   1.379       .  A
C3            H6   1.082       .  S
C4            C5   1.379       .  A
C4          C588   1.434       .  S
C5            H7   1.082       .  S
Cu8          N11   2.069   1_554  S
Cu9          N19   2.070       .  S
Cu10         N12   2.067       .  S
Cu10         N18   2.068       .  S
N11          N12   1.322       .  A
N11          C15   1.344       .  A
N12          C13   1.345       .  A
C13          C14   1.379       .  A
C13          H16   1.082       .  S
C14          C15   1.379       .  A
C14         C592   1.434       .  S
C15          H17   1.082       .  S
N18          N19   1.323   1_556  A
N18          C22   1.344       .  A
N19          C20   1.345       .  A
C20          C21   1.378       .  A
C20          H23   1.082       .  S
C21          C22   1.378   1_554  A
C21         C584   1.433       .  S
C22          H24   1.082       .  S
N25          N26   1.322       .  A
N25          C29   1.345       .  A
N25         Cu33   2.067       .  S
N26          C27   1.344       .  A
N26         Cu32   2.069       .  S
C27          C28   1.379       .  A
C27          H30   1.082       .  S
C28          C29   1.379       .  A
C28         C575   1.434       .  S
C29          H31   1.082       .  S
Cu32         N35   2.069   1_554  S
Cu33         N43   2.068       .  S
Cu34         N36   2.069       .  S
Cu34         N42   2.070       .  S
N35          N36   1.322       .  A
N35          C39   1.344       .  A
N36          C37   1.345       .  A
C37          C38   1.379       .  A
C37          H40   1.082       .  S
C38          C39   1.379       .  A
C38         C582   1.434       .  S
C39          H41   1.082       .  S
N42          N43   1.323   1_556  A
N42          C46   1.344       .  A
N43          C44   1.344       .  A
C44          C45   1.378       .  A
C44          H47   1.082       .  S
C45          C46   1.378   1_554  A
C45         C583   1.433       .  S
C46          H48   1.082       .  S
N49          N50   1.322       .  A
N49          C53   1.345       .  A
N49         Cu57   2.067       .  S
N50          C51   1.344       .  A
N50         Cu56   2.069       .  S
C51          C52   1.379       .  A
C51          H54   1.082       .  S
C52          C53   1.379       .  A
C52         C570   1.434       .  S
C53          H55   1.082       .  S
Cu56         N59   2.069   1_554  S
Cu57         N67   2.068       .  S
Cu58         N60   2.069       .  S
Cu58         N66   2.070       .  S
N59          N60   1.322       .  A
N59          C63   1.344       .  A
N60          C61   1.345       .  A
C61          C62   1.379       .  A
C61          H64   1.082       .  S
C62          C63   1.379       .  A
C62         C571   1.434       .  S
C63          H65   1.082       .  S
N66          N67   1.323   1_556  A
N66          C70   1.345       .  A
N67          C68   1.344       .  A
C68          C69   1.378       .  A
C68          H71   1.082       .  S
C69          C70   1.378   1_554  A
C69         C566   1.433       .  S
C70          H72   1.082       .  S
N73          N74   1.322       .  A
N73          C77   1.345       .  A
N73         Cu81   2.069       .  S
N74          C75   1.344       .  A
N74         Cu80   2.069       .  S
C75          C76   1.379       .  A
C75          H78   1.082       .  S
C76          C77   1.379       .  A
C76         C560   1.434       .  S
C77          H79   1.082       .  S
Cu80         N83   2.069   1_554  S
Cu81         N91   2.070       .  S
Cu82         N84   2.067       .  S
Cu82         N90   2.068       .  S
N83          N84   1.322       .  A
N83          C87   1.344       .  A
N84          C85   1.345       .  A
C85          C86   1.379       .  A
C85          H88   1.082       .  S
C86          C87   1.379       .  A
C86         C561   1.434       .  S
C87          H89   1.082       .  S
N90          N91   1.323   1_556  A
N90          C94   1.344       .  A
N91          C92   1.345       .  A
C92          C93   1.378       .  A
C92          H95   1.082       .  S
C93          C94   1.378   1_554  A
C93         C565   1.433       .  S
C94          H96   1.082       .  S
N97          N98   1.322       .  A
N97         C101   1.345       .  A
N97        Cu105   2.069       .  S
N98          C99   1.344       .  A
N98        Cu104   2.069       .  S
C99         C100   1.379       .  A
C99         H102   1.082       .  S
C100        C101   1.379       .  A
C100        C549   1.434       .  S
C101        H103   1.082       .  S
Cu104       N107   2.069   1_554  S
Cu105       N115   2.070       .  S
Cu106       N108   2.067       .  S
Cu106       N114   2.068       .  S
N107        N108   1.322       .  A
N107        C111   1.344       .  A
N108        C109   1.345       .  A
C109        C110   1.379       .  A
C109        H112   1.082       .  S
C110        C111   1.379       .  A
C110        C553   1.434       .  S
C111        H113   1.082       .  S
N114        N115   1.323   1_556  A
N114        C118   1.344       .  A
N115        C116   1.345       .  A
C116        C117   1.378       .  A
C116        H119   1.082       .  S
C117        C118   1.378   1_554  A
C117        C547   1.433       .  S
C118        H120   1.082       .  S
N121        N122   1.322       .  A
N121        C125   1.345       .  A
N121       Cu129   2.069       .  S
N122        C123   1.344       .  A
N122       Cu128   2.069   1_556  S
C123        C124   1.379       .  A
C123        H126   1.082       .  S
C124        C125   1.379       .  A
C124        C543   1.434       .  S
C125        H127   1.082       .  S
Cu128       N131   2.069       .  S
Cu129       N139   2.070       .  S
Cu130       N132   2.067       .  S
Cu130       N138   2.068       .  S
N131        N132   1.322       .  A
N131        C135   1.344       .  A
N132        C133   1.345       .  A
C133        C134   1.379       .  A
C133        H136   1.082       .  S
C134        C135   1.379       .  A
C134        C542   1.434       .  S
C135        H137   1.082       .  S
N138        N139   1.323   1_554  A
N138        C142   1.344       .  A
N139        C140   1.345       .  A
C140        C141   1.378   1_556  A
C140        H143   1.082       .  S
C141        C142   1.378       .  A
C141        C548   1.433       .  S
C142        H144   1.082       .  S
N145        N146   1.322       .  A
N145        C149   1.345       .  A
N145       Cu153   2.067       .  S
N146        C147   1.344       .  A
N146       Cu152   2.069       .  S
C147        C148   1.379       .  A
C147        H150   1.082       .  S
C148        C149   1.379       .  A
C148        C534   1.434       .  S
C149        H151   1.082       .  S
Cu152       N155   2.069   1_554  S
Cu153       N163   2.068       .  S
Cu154       N156   2.069       .  S
Cu154       N162   2.070       .  S
N155        N156   1.322       .  A
N155        C159   1.344       .  A
N156        C157   1.345       .  A
C157        C158   1.379       .  A
C157        H160   1.082       .  S
C158        C159   1.379       .  A
C158        C535   1.434       .  S
C159        H161   1.082       .  S
N162        N163   1.323   1_556  A
N162        C166   1.345       .  A
N163        C164   1.344       .  A
C164        C165   1.378       .  A
C164        H167   1.082       .  S
C165        C166   1.378   1_554  A
C165        C530   1.433       .  S
C166        H168   1.082       .  S
N169        N170   1.322       .  A
N169        C173   1.345       .  A
N169       Cu177   2.069       .  S
N170        C171   1.344       .  A
N170       Cu176   2.069       .  S
C171        C172   1.379       .  A
C171        H174   1.082       .  S
C172        C173   1.379       .  A
C172        C521   1.434       .  S
C173        H175   1.082       .  S
Cu176       N179   2.069   1_554  S
Cu177       N187   2.070       .  S
Cu178       N180   2.067       .  S
Cu178       N186   2.068       .  S
N179        N180   1.322       .  A
N179        C183   1.344       .  A
N180        C181   1.345       .  A
C181        C182   1.379       .  A
C181        H184   1.082       .  S
C182        C183   1.379       .  A
C182        C525   1.434       .  S
C183        H185   1.082       .  S
N186        N187   1.323   1_556  A
N186        C190   1.344       .  A
N187        C188   1.345       .  A
C188        C189   1.378       .  A
C188        H191   1.082       .  S
C189        C190   1.378   1_554  A
C189        C529   1.433       .  S
C190        H192   1.082       .  S
N193        N194   1.322       .  A
N193        C197   1.345       .  A
N193       Cu201   2.069       .  S
N194        C195   1.344       .  A
N194       Cu200   2.069       .  S
C195        C196   1.379       .  A
C195        H198   1.082       .  S
C196        C197   1.379       .  A
C196        C520   1.434       .  S
C197        H199   1.082       .  S
Cu200       N203   2.069       .  S
Cu201       N211   2.070       .  S
Cu202       N204   2.067       .  S
Cu202       N210   2.068       .  S
N203        N204   1.322       .  A
N203        C207   1.344       .  A
N204        C205   1.345       .  A
C205        C206   1.379       .  A
C205        H208   1.082       .  S
C206        C207   1.379       .  A
C206        C513   1.434       .  S
C207        H209   1.082       .  S
N210        N211   1.323       .  A
N210        C214   1.344       .  A
N211        C212   1.345       .  A
C212        C213   1.378       .  A
C212        H215   1.082       .  S
C213        C214   1.378       .  A
C213        C511   1.433       .  S
C214        H216   1.082       .  S
N217        N218   1.322       .  A
N217        C221   1.345       .  A
N217       Cu225   2.067       .  S
N218        C219   1.344       .  A
N218       Cu224   2.069       .  S
C219        C220   1.379       .  A
C219        H222   1.082       .  S
C220        C221   1.379       .  A
C220        C503   1.434       .  S
C221        H223   1.082       .  S
Cu224       N227   2.069       .  S
Cu225       N235   2.068       .  S
Cu226       N228   2.069       .  S
Cu226       N234   2.070       .  S
N227        N228   1.322       .  A
N227        C231   1.344       .  A
N228        C229   1.345       .  A
C229        C230   1.379       .  A
C229        H232   1.082       .  S
C230        C231   1.379       .  A
C230        C510   1.434       .  S
C231        H233   1.082       .  S
N234        N235   1.323       .  A
N234        C238   1.344       .  A
N235        C236   1.344       .  A
C236        C237   1.378       .  A
C236        H239   1.082       .  S
C237        C238   1.378       .  A
C237        C512   1.433   1_545  S
C238        H240   1.082       .  S
N241        N242   1.322       .  A
N241        C245   1.345       .  A
N241       Cu249   2.069       .  S
N242        C243   1.344       .  A
N242       Cu248   2.069       .  S
C243        C244   1.379       .  A
C243        H246   1.082       .  S
C244        C245   1.379       .  A
C244        C495   1.434       .  S
C245        H247   1.082       .  S
Cu248       N251   2.069       .  S
Cu249       N259   2.070       .  S
Cu250       N252   2.067       .  S
Cu250       N258   2.068       .  S
N251        N252   1.322       .  A
N251        C255   1.344       .  A
N252        C253   1.345       .  A
C253        C254   1.379       .  A
C253        H256   1.082       .  S
C254        C255   1.379       .  A
C254        C499   1.434       .  S
C255        H257   1.082       .  S
N258        N259   1.323       .  A
N258        C262   1.344       .  A
N259        C260   1.345       .  A
C260        C261   1.378       .  A
C260        H263   1.082       .  S
C261        C262   1.378       .  A
C261        C493   1.433       .  S
C262        H264   1.082       .  S
N265        N266   1.322       .  A
N265        C269   1.345       .  A
N265       Cu273   2.067       .  S
N266        C267   1.344       .  A
N266       Cu272   2.069       .  S
C267        C268   1.379       .  A
C267        H270   1.082       .  S
C268        C269   1.379       .  A
C268        C489   1.434       .  S
C269        H271   1.082       .  S
Cu272       N275   2.069       .  S
Cu273       N283   2.068       .  S
Cu274       N276   2.069       .  S
Cu274       N282   2.070       .  S
N275        N276   1.322       .  A
N275        C279   1.344       .  A
N276        C277   1.345       .  A
C277        C278   1.379       .  A
C277        H280   1.082       .  S
C278        C279   1.379       .  A
C278        C488   1.434       .  S
C279        H281   1.082       .  S
N282        N283   1.323       .  A
N282        C286   1.344       .  A
N283        C284   1.344       .  A
C284        C285   1.378       .  A
C284        H287   1.082       .  S
C285        C286   1.378       .  A
C285        C494   1.433   1_455  S
C286        H288   1.082       .  S
C289        C290   1.409       .  A
C289        C294   1.400       .  A
C289        C589   1.442       .  S
C290        C291   1.400       .  A
C290        C564   1.442       .  S
C291        C292   1.400       .  A
C291        H296   1.085       .  S
C292        C293   1.409       .  A
C292        C498   1.442       .  S
C293        C294   1.400       .  A
C293        C517   1.442       .  S
C294        H295   1.085       .  S
C297        C298   1.409       .  A
C297        C302   1.400       .  A
C297        C585   1.442       .  S
C298        C299   1.400       .  A
C298        C557   1.442       .  S
C299        C300   1.400       .  A
C299        H304   1.085       .  S
C300        C301   1.409       .  A
C300        C502   1.442       .  S
C301        C302   1.400       .  A
C301        C516   1.442       .  S
C302        H303   1.085       .  S
N305        N306   1.322       .  A
N305        C309   1.345       .  A
N305       Cu313   2.067       .  S
N306        C307   1.344       .  A
N306       Cu312   2.069       .  S
C307        C308   1.379       .  A
C307        H310   1.082       .  S
C308        C309   1.379       .  A
C308        C477   1.434       .  S
C309        H311   1.082       .  S
Cu312       N315   2.069       .  S
Cu313       N323   2.068       .  S
Cu314       N316   2.069       .  S
Cu314       N322   2.070       .  S
N315        N316   1.322       .  A
N315        C319   1.344       .  A
N316        C317   1.345       .  A
C317        C318   1.379       .  A
C317        H320   1.082       .  S
C318        C319   1.379       .  A
C318        C481   1.434       .  S
C319        H321   1.082       .  S
N322        N323   1.323       .  A
N322        C326   1.345       .  A
N323        C324   1.344       .  A
C324        C325   1.378       .  A
C324        H327   1.082       .  S
C325        C326   1.378       .  A
C325        C475   1.433       .  S
C326        H328   1.082       .  S
N329        N330   1.322       .  A
N329        C333   1.345       .  A
N329       Cu337   2.069       .  S
N330        C331   1.344       .  A
N330       Cu336   2.069       .  S
C331        C332   1.379       .  A
C331        H334   1.082       .  S
C332        C333   1.379       .  A
C332        C471   1.434       .  S
C333        H335   1.082       .  S
Cu336       N339   2.069       .  S
Cu337       N347   2.070       .  S
Cu338       N340   2.067       .  S
Cu338       N346   2.068       .  S
N339        N340   1.322       .  A
N339        C343   1.344       .  A
N340        C341   1.345       .  A
C341        C342   1.379       .  A
C341        H344   1.082       .  S
C342        C343   1.379       .  A
C342        C467   1.434       .  S
C343        H345   1.082       .  S
N346        N347   1.323       .  A
N346        C350   1.344       .  A
N347        C348   1.345       .  A
C348        C349   1.378       .  A
C348        H351   1.082       .  S
C349        C350   1.378       .  A
C349        C476   1.433   1_545  S
C350        H352   1.082       .  S
C353        C354   1.409       .  A
C353        C358   1.400       .  A
C353        C579   1.442       .  S
C354        C355   1.400       .  A
C354        C538   1.442       .  S
C355        C356   1.400       .  A
C355        H360   1.085       .  S
C356        C357   1.409       .  A
C356        C492   1.442       .  S
C357        C358   1.400       .  A
C357        C480   1.442       .  S
C358        H359   1.085       .  S
C361        C362   1.409       .  A
C361        C366   1.400       .  A
C361        C578   1.442       .  S
C362        C363   1.400       .  A
C362        C531   1.442       .  S
C363        C364   1.400       .  A
C363        H368   1.085       .  S
C364        C365   1.409       .  A
C364        C485   1.442       .  S
C365        C366   1.400       .  A
C365        C484   1.442       .  S
C366        H367   1.085       .  S
N369        N370   1.322       .  A
N369        C373   1.345       .  A
N369       Cu377   2.067       .  S
N370        C371   1.344       .  A
N370       Cu376   2.069       .  S
C371        C372   1.379       .  A
C371        H374   1.082       .  S
C372        C373   1.379       .  A
C372        C466   1.434       .  S
C373        H375   1.082       .  S
Cu376       N379   2.069       .  S
Cu377       N387   2.068       .  S
Cu378       N380   2.069       .  S
Cu378       N386   2.070       .  S
N379        N380   1.322       .  A
N379        C383   1.344       .  A
N380        C381   1.345       .  A
C381        C382   1.379       .  A
C381        H384   1.082       .  S
C382        C383   1.379       .  A
C382        C462   1.434       .  S
C383        H385   1.082       .  S
N386        N387   1.323       .  A
N386        C390   1.345       .  A
N387        C388   1.344       .  A
C388        C389   1.378       .  A
C388        H391   1.082       .  S
C389        C390   1.378       .  A
C389        C457   1.433       .  S
C390        H392   1.082       .  S
N393        N394   1.322       .  A
N393        C397   1.345       .  A
N393       Cu401   2.069       .  S
N394        C395   1.344       .  A
N394       Cu400   2.069       .  S
C395        C396   1.379       .  A
C395        H398   1.082       .  S
C396        C397   1.379       .  A
C396        C452   1.434       .  S
C397        H399   1.082       .  S
Cu400       N403   2.069       .  S
Cu401       N411   2.070       .  S
Cu402       N404   2.067       .  S
Cu402       N410   2.068       .  S
N403        N404   1.322       .  A
N403        C407   1.344       .  A
N404        C405   1.345       .  A
C405        C406   1.379       .  A
C405        H408   1.082       .  S
C406        C407   1.379       .  A
C406        C453   1.434       .  S
C407        H409   1.082       .  S
N410        N411   1.323       .  A
N410        C414   1.344       .  A
N411        C412   1.345       .  A
C412        C413   1.378       .  A
C412        H415   1.082       .  S
C413        C414   1.378       .  A
C413        C458   1.433   1_455  S
C414        H416   1.082       .  S
C417        C418   1.409       .  A
C417        C422   1.400       .  A
C417        C574   1.442       .  S
C418        C419   1.400       .  A
C418        C546   1.442       .  S
C419        C420   1.400       .  A
C419        H424   1.085       .  S
C420        C421   1.409       .  A
C420        C506   1.442       .  S
C421        C422   1.400       .  A
C421        C463   1.442       .  S
C422        H423   1.085       .  S
C425        C426   1.409       .  A
C425        C430   1.400       .  A
C425        C567   1.442       .  S
C426        C427   1.400       .  A
C426        C539   1.442       .  S
C427        C428   1.400       .  A
C427        H432   1.085       .  S
C428        C429   1.409       .  A
C428        C507   1.442       .  S
C429        C430   1.400       .  A
C429        C459   1.442       .  S
C430        H431   1.085       .  S
C433        C434   1.409       .  A
C433        C438   1.400       .  A
C433        C528   1.442       .  S
C434        C435   1.400       .  A
C434        C556   1.442       .  S
C435        C436   1.400       .  A
C435        H440   1.085       .  S
C436        C437   1.409       .  A
C436        C474   1.442       .  S
C437        C438   1.400       .  A
C437        C449   1.442       .  S
C438        H439   1.085       .  S
C441        C442   1.409       .  A
C441        C446   1.400       .  A
C441        C524   1.442       .  S
C442        C443   1.400       .  A
C442        C552   1.442       .  S
C443        C444   1.400       .  A
C443        H448   1.085       .  S
C444        C445   1.409       .  A
C444        C470   1.442       .  S
C445        C446   1.400       .  A
C445        C456   1.442       .  S
C446        H447   1.085       .  S
C449        C450   1.204       .  T
C450        C451   1.409       .  S
C451        C452   1.204       .  T
C453        C454   1.204       .  T
C454        C455   1.409       .  S
C455        C456   1.204       .  T
C457        C458   1.203       .  T
C459        C460   1.204       .  T
C460        C461   1.409       .  S
C461        C462   1.204       .  T
C463        C464   1.204       .  T
C464        C465   1.409       .  S
C465        C466   1.204       .  T
C467        C468   1.204       .  T
C468        C469   1.409       .  S
C469        C470   1.204       .  T
C471        C472   1.204       .  T
C472        C473   1.409       .  S
C473        C474   1.204       .  T
C475        C476   1.203       .  T
C477        C478   1.204       .  T
C478        C479   1.409       .  S
C479        C480   1.204       .  T
C481        C482   1.204       .  T
C482        C483   1.409       .  S
C483        C484   1.204       .  T
C485        C486   1.204       .  T
C486        C487   1.409       .  S
C487        C488   1.204       .  T
C489        C490   1.204       .  T
C490        C491   1.409       .  S
C491        C492   1.204       .  T
C493        C494   1.203       .  T
C495        C496   1.204       .  T
C496        C497   1.409       .  S
C497        C498   1.204       .  T
C499        C500   1.204       .  T
C500        C501   1.409       .  S
C501        C502   1.204       .  T
C503        C504   1.204       .  T
C504        C505   1.409       .  S
C505        C506   1.204       .  T
C507        C508   1.204       .  T
C508        C509   1.409       .  S
C509        C510   1.204       .  T
C511        C512   1.203       .  T
C513        C514   1.204       .  T
C514        C515   1.409       .  S
C515        C516   1.204       .  T
C517        C518   1.204       .  T
C518        C519   1.409       .  S
C519        C520   1.204       .  T
C521        C522   1.204       .  T
C522        C523   1.409       .  S
C523        C524   1.204       .  T
C525        C526   1.204       .  T
C526        C527   1.409       .  S
C527        C528   1.204       .  T
C529        C530   1.203       .  T
C531        C532   1.204       .  T
C532        C533   1.409       .  S
C533        C534   1.204       .  T
C535        C536   1.204       .  T
C536        C537   1.409       .  S
C537        C538   1.204       .  T
C539        C540   1.204       .  T
C540        C541   1.409       .  S
C541        C542   1.204       .  T
C543        C544   1.204       .  T
C544        C545   1.409       .  S
C545        C546   1.204       .  T
C547        C548   1.203       .  T
C549        C550   1.204       .  T
C550        C551   1.409       .  S
C551        C552   1.204       .  T
C553        C554   1.204       .  T
C554        C555   1.409       .  S
C555        C556   1.204       .  T
C557        C558   1.204       .  T
C558        C559   1.409       .  S
C559        C560   1.204       .  T
C561        C562   1.204       .  T
C562        C563   1.409       .  S
C563        C564   1.204       .  T
C565        C566   1.203       .  T
C567        C568   1.204       .  T
C568        C569   1.409       .  S
C569        C570   1.204       .  T
C571        C572   1.204       .  T
C572        C573   1.409       .  S
C573        C574   1.204       .  T
C575        C576   1.204       .  T
C576        C577   1.409       .  S
C577        C578   1.204       .  T
C579        C580   1.204       .  T
C580        C581   1.409       .  S
C581        C582   1.204       .  T
C583        C584   1.203       .  T
C585        C586   1.204       .  T
C586        C587   1.409       .  S
C587        C588   1.204       .  T
C589        C590   1.204       .  T
C590        C591   1.409       .  S
C591        C592   1.204       .  T
