geometry optimzed in LAMMPS
_audit_creation_date              2020-12-01 
_audit_creation_method            'lammps2cif' 
_symmetry_space_group_name_H-M    'P1' 
_symmetry_Int_Tables_number       1 
_symmetry_cell_setting            triclinic 
loop_ 
_symmetry_equiv_pos_as_xyz 
  x,y,z 
_cell_length_a                    37.33550046 
_cell_length_b                    37.243857403517715 
_cell_length_c                    88.65354749761609 
_cell_angle_alpha                 89.92222931958072 
_cell_angle_beta                  89.98068150837273 
_cell_angle_gamma                 120.27388093392517 
loop_ 
_atom_site_label 
_atom_site_type_symbol 
_atom_site_fract_x 
_atom_site_fract_y 
_atom_site_fract_z 
_atom_site_charge 
N1          N  0.32315355  0.57552986  0.69095683    -0.27300
N2          N  0.31992288  0.60688051  0.68561809    -0.35200
C3          C  0.29136056  0.61042763  0.69360340     0.01000
C4          C  0.27493174  0.57953609  0.70453745     0.07000
C5          C  0.29594622  0.55781079  0.70242219    -0.06100
H6          H  0.28236141  0.63330569  0.69126684     0.07700
H7          H  0.29069439  0.52998791  0.70813940     0.08900
Cu8        Cu  0.35058761  0.64107669  0.66669312     0.44200
Cu9        Cu  0.36460441  0.55912396  0.68182826     0.42000
Cu10       Cu  0.42576618  0.62221992  0.64926085     0.43900
N11         N  0.38221933  0.67135890  0.64731130    -0.34700
N12         N  0.41066275  0.66518306  0.64095091    -0.29000
C13         C  0.42739753  0.69146018  0.62920354    -0.05100
C14         C  0.40796733  0.71471091  0.62799785     0.07200
C15         C  0.37972836  0.70131883  0.63974210     0.01000
H16         H  0.45241725  0.69407610  0.62224388     0.08600
H17         H  0.36031573  0.71383700  0.64304947     0.07700
N18         N  0.43447418  0.57728672  0.65985533    -0.36200
N19         N  0.41226194  0.55421418  0.67140601    -0.28300
C20         C  0.42598633  0.52823461  0.67525066    -0.03600
C21         C  0.45868079  0.53558233  0.66583912     0.05000
C22         C  0.46282241  0.56660756  0.65612006     0.03100
H23         H  0.41318504  0.50566084  0.68429213     0.08200
H24         H  0.48388451  0.57964136  0.64668155     0.07100
N25         N  0.67651943  0.40058742  0.69359612    -0.27300
N26         N  0.67810566  0.36726699  0.68967654    -0.35200
C27         C  0.70692461  0.36507270  0.69801025     0.01000
C28         C  0.72524748  0.39901905  0.70766242     0.07000
C29         C  0.70502124  0.42097574  0.70441293    -0.06100
H30         H  0.71476852  0.34096774  0.69674722     0.07700
H31         H  0.71162037  0.45061979  0.70884172     0.08900
Cu32       Cu  0.64480956  0.32897920  0.67196748     0.44200
Cu33       Cu  0.63576096  0.41621488  0.68346680     0.42000
Cu34       Cu  0.56780614  0.34522267  0.65391651     0.43900
N35         N  0.61039984  0.29503008  0.65362545    -0.34700
N36         N  0.58106176  0.29969316  0.64723899    -0.29000
C37         C  0.56412077  0.27207896  0.63592506    -0.05100
C38         C  0.58376129  0.24885994  0.63516653     0.07200
C39         C  0.61342540  0.26495573  0.64645270     0.01000
H40         H  0.53926881  0.26907698  0.62878115     0.08600
H41         H  0.63648618  0.25663378  0.64912716     0.07700
N42         N  0.56447316  0.39581022  0.66206129    -0.36200
N43         N  0.58917149  0.42166200  0.67256363    -0.28300
C44         C  0.57816310  0.45038958  0.67522064    -0.03600
C45         C  0.54467064  0.44201007  0.66612160     0.05000
C46         C  0.53724328  0.40747665  0.65779078     0.03100
H47         H  0.59286292  0.47506217  0.68344207     0.08200
H48         H  0.51419454  0.39214118  0.64909217     0.07100
N49         N  0.93931934  0.47086205  0.74942773    -0.27300
N50         N  0.91860451  0.46393870  0.76218752    -0.35200
C51         C  0.87811723  0.44829437  0.75896962     0.01000
C52         C  0.87319309  0.44493740  0.74340183     0.07000
C53         C  0.91292762  0.46027763  0.73779152    -0.06100
H54         H  0.85410811  0.44036544  0.76731721     0.07700
H55         H  0.92260816  0.46532963  0.72613370     0.08900
Cu56       Cu  0.94855230  0.47929898  0.78297811     0.44200
Cu57       Cu  0.00273671  0.49527055  0.74828074     0.42000
Cu58       Cu  0.06362005  0.53081398  0.78209449     0.43900
N59         N  0.98686099  0.50101574  0.80185563    -0.34700
N60         N  0.02790621  0.51998870  0.80158724    -0.29000
C61         C  0.04212642  0.52944309  0.81584070    -0.05100
C62         C  0.00854671  0.51562036  0.82550892     0.07200
C63         C  0.97408706  0.49784141  0.81624828     0.01000
H64         H  0.07452275  0.54448285  0.81894903     0.08600
H65         H  0.94195793  0.48320604  0.81970822     0.07700
N66         N  0.08945008  0.53430979  0.76082178    -0.36200
N67         N  0.06632583  0.52039787  0.74857107    -0.28300
C68         C  0.09054320  0.52522880  0.73665266    -0.03600
C69         C  0.13135198  0.54399507  0.74143377     0.05000
C70         C  0.12937730  0.54873741  0.75691890     0.03100
H71         H  0.07873262  0.51431018  0.72545853     0.08200
H72         H  0.15508180  0.56170351  0.76475101     0.07100
N73         N  0.47024384  0.92270926  0.58484902    -0.27300
N74         N  0.46591763  0.90278161  0.57204188    -0.35200
C75         C  0.45576043  0.86335510  0.57523820     0.01000
C76         C  0.45434600  0.85885504  0.59077407     0.07000
C77         C  0.46350509  0.89695024  0.59648926    -0.06100
H78         H  0.45027872  0.83991742  0.56691431     0.07700
H79         H  0.46497658  0.90532162  0.60824786     0.08900
Cu80       Cu  0.47593605  0.93182433  0.55106817     0.44200
Cu81       Cu  0.48630334  0.98423419  0.58615559     0.42000
Cu82       Cu  0.52287164  0.04557865  0.55248589     0.43900
N83         N  0.49085175  0.97020866  0.53214301    -0.34700
N84         N  0.50869563  0.01122296  0.53268414    -0.29000
C85         C  0.51418221  0.02624567  0.51852656    -0.05100
C86         C  0.49888329  0.99319696  0.50859485     0.07200
C87         C  0.48430818  0.95816372  0.51760807     0.01000
H88         H  0.52770550  0.05881160  0.51570357     0.08600
H89         H  0.47004890  0.92621796  0.51388870     0.07700
N90         N  0.52675565  0.07097179  0.57369801    -0.36200
N91         N  0.51138558  0.04772985  0.58587710    -0.28300
C92         C  0.51773825  0.07226940  0.59781460    -0.03600
C93         C  0.53832254  0.11331155  0.59305288     0.05000
C94         C  0.54379202  0.11123058  0.57762453     0.03100
H95         H  0.50851367  0.06094613  0.60921696     0.08200
H96         H  0.56011491  0.13669702  0.56983181     0.07100
N97         N  0.59344152  0.27247730  0.02181034    -0.27300
N98         N  0.62069954  0.30806460  0.01546907    -0.35200
C99         C  0.62210574  0.33964490  0.02330777     0.01000
C100        C  0.59402718  0.32312022  0.03505564     0.07000
C101        C  0.57636186  0.28043745  0.03379234    -0.06100
H102        H  0.64133245  0.37217836  0.02043196     0.07700
H103        H  0.55278004  0.25694034  0.04099669     0.08900
Cu104      Cu  0.65354818  0.31150574  0.99618059     0.44200
Cu105      Cu  0.58160092  0.21523426  0.01362304     0.42000
Cu106      Cu  0.64359203  0.21559729  0.98156818     0.43900
N107        N  0.68671502  0.30886635  0.97792988    -0.34700
N108        N  0.68432116  0.27442511  0.97279832    -0.29000
C109        C  0.71334629  0.28456911  0.96202000    -0.05100
C110        C  0.73471892  0.32748715  0.96013968     0.07200
C111        C  0.71684493  0.34160605  0.97049046     0.01000
H112        H  0.71996914  0.26241865  0.95676829     0.08600
H113        H  0.72623240  0.37362683  0.97291039     0.07700
N114        N  0.59953185  0.16185607  0.99266738    -0.36200
N115        N  0.57682385  0.16200370  0.00410734    -0.28300
C116        C  0.55085157  0.12260495  0.00848617    -0.03600
C117        C  0.55777561  0.09628047  0.99956065     0.05000
C118        C  0.58863760  0.12221661  0.98955227     0.03100
H119        H  0.52852102  0.11373058  0.01754673     0.08200
H120        H  0.60141241  0.11301292  0.98039643     0.07100
N121        N  0.41784200  0.73783557  0.02569899    -0.27300
N122        N  0.39292056  0.70301250  0.01841341    -0.35200
C123        C  0.39238590  0.67095117  0.02563590     0.01000
C124        C  0.41807184  0.68619963  0.03809103     0.07000
C125        C  0.43403878  0.72877303  0.03768682    -0.06100
H126        H  0.37597661  0.63914941  0.02169495     0.07700
H127        H  0.45645730  0.75157134  0.04536720     0.08900
Cu128      Cu  0.36262699  0.70029839  0.99839678     0.44200
Cu129      Cu  0.43071338  0.79643589  0.01850364     0.42000
Cu130      Cu  0.37890895  0.79752845  0.98393069     0.43900
N131        N  0.33418713  0.70507092  0.97894827    -0.34700
N132        N  0.33943652  0.74077970  0.97385406    -0.29000
C133        C  0.31411254  0.73334488  0.96201086    -0.05100
C134        C  0.29234996  0.69095812  0.95935105     0.07200
C135        C  0.30566748  0.67398406  0.97037778     0.01000
H136        H  0.31067323  0.75688224  0.95611350     0.08600
H137        H  0.29359045  0.64130638  0.97262256     0.07700
N138        N  0.42100740  0.85068793  0.99546029    -0.36200
N139        N  0.44018241  0.85061225  0.00799393    -0.28300
C140        C  0.46633470  0.89024313  0.01214408    -0.03600
C141        C  0.46297348  0.91637408  0.00183520     0.05000
C142        C  0.43424777  0.89019702  0.99135899     0.03100
H143        H  0.48638340  0.89937941  0.02191237     0.08200
H144        H  0.42451586  0.89911847  0.98123280     0.07100
N145        N  0.07901515  0.54967605  0.91859963    -0.27300
N146        N  0.09855779  0.56370040  0.90559824    -0.35200
C147        C  0.13892078  0.59078905  0.90832059     0.01000
C148        C  0.14475236  0.59434687  0.92377731     0.07000
C149        C  0.10622504  0.56766439  0.92993366    -0.06100
H150        H  0.16200063  0.60758028  0.89971751     0.07700
H151        H  0.09843122  0.56197613  0.94178336     0.08900
Cu152      Cu  0.06816773  0.54725175  0.88494372     0.44200
Cu153      Cu  0.01582352  0.50855405  0.92034043     0.42000
Cu154      Cu  0.95513885  0.48470699  0.88596386     0.43900
N155        N  0.03081658  0.52855194  0.86584615    -0.34700
N156        N  0.98981988  0.50628377  0.86615717    -0.29000
C157        C  0.97555979  0.49900143  0.85188012    -0.05100
C158        C  0.00917035  0.51740644  0.84214485     0.07200
C159        C  0.04364675  0.53590168  0.85139910     0.01000
H160        H  0.94315800  0.48078719  0.84882568     0.08600
H161        H  0.07579244  0.55292972  0.84790983     0.07700
N162        N  0.92931810  0.46449830  0.90733122    -0.36200
N163        N  0.95175576  0.47237863  0.91971090    -0.28300
C164        C  0.92642537  0.45379902  0.93150979    -0.03600
C165        C  0.88576221  0.43373694  0.92645779     0.05000
C166        C  0.88895158  0.44088555  0.91100338     0.03100
H167        H  0.93734682  0.45378576  0.94277198     0.08200
H168        H  0.86373315  0.42947596  0.90298367     0.07100
N169        N  0.53658929  0.46770599  0.08087164    -0.27300
N170        N  0.54293884  0.45299574  0.09354669    -0.35200
C171        C  0.55643461  0.42652104  0.09011129     0.01000
C172        C  0.55838521  0.42447803  0.07453646     0.07000
C173        C  0.54530730  0.45073383  0.06908846    -0.06100
H174        H  0.56249216  0.40867506  0.09829802     0.07700
H175        H  0.54162444  0.45647327  0.05738312     0.08900
Cu176      Cu  0.52838500  0.46696500  0.11467856     0.44200
Cu177      Cu  0.51439389  0.50864497  0.07995556     0.42000
Cu178      Cu  0.47512581  0.52774582  0.11404675     0.43900
N179        N  0.50633430  0.48252951  0.13379189    -0.34700
N180        N  0.48627861  0.50342208  0.13346710    -0.29000
C181        C  0.47685011  0.50841180  0.14767729    -0.05100
C182        C  0.49183355  0.49008108  0.15744349     0.07200
C183        C  0.51027782  0.47391713  0.14825599     0.01000
H184        H  0.46127752  0.52524813  0.15068433     0.08600
H185        H  0.52596921  0.45760982  0.15181969     0.07700
N186        N  0.47436504  0.55404275  0.09340452    -0.36200
N187        N  0.49011964  0.54781395  0.08100138    -0.28300
C188        C  0.48671329  0.56983074  0.06963636    -0.03600
C189        C  0.46797112  0.59106908  0.07512401     0.05000
C190        C  0.46008865  0.57998494  0.09020231     0.03100
H191        H  0.49627508  0.56955583  0.05813929     0.08200
H192        H  0.44536618  0.59025513  0.09825370     0.07100
N193        N  0.72907876  0.41562295  0.30987474    -0.27300
N194        N  0.69427983  0.38236354  0.31417097    -0.35200
C195        C  0.66264935  0.38032022  0.30626666     0.01000
C196        C  0.67789194  0.41405399  0.29648851     0.07000
C197        C  0.72034294  0.43598958  0.29926999    -0.06100
H198        H  0.63066681  0.35604500  0.30767881     0.07700
H199        H  0.74336202  0.46521944  0.29444917     0.08900
Cu200      Cu  0.69035093  0.34257570  0.33133458     0.44200
Cu201      Cu  0.78686431  0.43065306  0.31835862     0.42000
Cu202      Cu  0.78659842  0.36146423  0.34761020     0.43900
N203        N  0.69336644  0.30939146  0.34964538    -0.34700
N204        N  0.72869749  0.31592132  0.35553132    -0.29000
C205        C  0.72027662  0.28888081  0.36694071    -0.05100
C206        C  0.67763071  0.26438014  0.36833009     0.07200
C207        C  0.66155102  0.27835492  0.35723959     0.01000
H208        H  0.74346332  0.28709690  0.37369103     0.08600
H209        H  0.62913401  0.26622874  0.35465825     0.07700
N210        N  0.84017795  0.40916209  0.33769424    -0.36200
N211        N  0.84023493  0.43441405  0.32717646    -0.28300
C212        C  0.87968988  0.46175691  0.32331675    -0.03600
C213        C  0.90583209  0.45317597  0.33167860     0.05000
C214        C  0.87962793  0.41987055  0.34079410     0.03100
H215        H  0.88872990  0.48618140  0.31502141     0.08200
H216        H  0.88839603  0.40530927  0.34944349     0.07100
N217        N  0.26282992  0.59029418  0.30788640    -0.27300
N218        N  0.29791431  0.62040820  0.31350785    -0.35200
C219        C  0.32978133  0.62272774  0.30566205     0.01000
C220        C  0.31442259  0.59240240  0.29450826     0.07000
C221        C  0.27158955  0.57221131  0.29644592    -0.06100
H222        H  0.36195697  0.64476409  0.30809043     0.07700
H223        H  0.24817250  0.54534313  0.29053329     0.08900
Cu224      Cu  0.30163339  0.65546053  0.33220914     0.44200
Cu225      Cu  0.20461519  0.57559128  0.31600580     0.42000
Cu226      Cu  0.20493895  0.63987096  0.34687059     0.43900
N227        N  0.29744729  0.68589932  0.35108420    -0.34700
N228        N  0.26200739  0.68088128  0.35625719    -0.29000
C229        C  0.26976054  0.70620433  0.36812629    -0.05100
C230        C  0.31206032  0.72764050  0.37070895     0.07200
C231        C  0.32869361  0.71429342  0.35959869     0.01000
H232        H  0.24639586  0.70917420  0.37430674     0.08600
H233        H  0.36117885  0.72566713  0.35741529     0.07700
N234        N  0.15145238  0.59402704  0.33665018    -0.36200
N235        N  0.15110514  0.57023312  0.32553112    -0.28300
C236        C  0.11147018  0.54298887  0.32187277    -0.03600
C237        C  0.08564482  0.55024080  0.33101603     0.05000
C238        C  0.11218335  0.58255835  0.34035961     0.03100
H239        H  0.10208658  0.51949208  0.31321527     0.08200
H240        H  0.10382842  0.59580390  0.34959581     0.07100
N241        N  0.53138843  0.47373389  0.25132746    -0.27300
N242        N  0.54445519  0.46402860  0.23900213    -0.35200
C243        C  0.57043983  0.45045348  0.24302546     0.01000
C244        C  0.57337180  0.45136655  0.25866757     0.07000
C245        C  0.54871955  0.46707389  0.26344901    -0.06100
H246        H  0.58605968  0.44069499  0.23517707     0.07700
H247        H  0.54469919  0.47478864  0.27481797     0.08900
Cu248      Cu  0.52603188  0.47171148  0.21764503     0.44200
Cu249      Cu  0.49098097  0.49605827  0.25135549     0.42000
Cu250      Cu  0.45834117  0.51891068  0.21668434     0.43900
N251        N  0.50287745  0.48399090  0.19813645    -0.34700
N252        N  0.47916885  0.50107913  0.19774637    -0.29000
C253        C  0.47116331  0.50526649  0.18323716    -0.05100
C254        C  0.49062192  0.49012490  0.17408787     0.07200
C255        C  0.51033051  0.47683933  0.18391612     0.01000
H256        H  0.45280882  0.51873539  0.17962300     0.08600
H257        H  0.52936957  0.46360374  0.18096420     0.07700
N258        N  0.44131233  0.53102787  0.23772747    -0.36200
N259        N  0.45293611  0.52110176  0.25036552    -0.28300
C260        C  0.43694274  0.53067508  0.26217824    -0.03600
C261        C  0.41482656  0.54874903  0.25690840     0.05000
C262        C  0.41769429  0.54781797  0.24126490     0.03100
H263        H  0.44015557  0.52336572  0.27369764     0.08200
H264        H  0.40360688  0.55849090  0.23308892     0.07100
N265        N  0.53851073  0.05955598  0.41493443    -0.27300
N266        N  0.55078681  0.08151931  0.42751268    -0.35200
C267        C  0.57668065  0.12177840  0.42388651     0.01000
C268        C  0.58063791  0.12505790  0.40827589     0.07000
C269        C  0.55625208  0.08489371  0.40306002    -0.06100
H270        H  0.59230335  0.14648768  0.43202657     0.07700
H271        H  0.55157712  0.07480508  0.39142429     0.08900
Cu272      Cu  0.53183201  0.05398831  0.44885439     0.44200
Cu273      Cu  0.49769173  0.99618341  0.41418425     0.42000
Cu274      Cu  0.46190139  0.93985796  0.44877798     0.43900
N275        N  0.50928252  0.01680257  0.46823899    -0.34700
N276        N  0.48487712  0.97585861  0.46805188    -0.29000
C277        C  0.47742591  0.96147239  0.48230130    -0.05100
C278        C  0.49789221  0.99476917  0.49198489     0.07200
C279        C  0.51767312  0.02940444  0.48271071     0.01000
H280        H  0.45846116  0.92904223  0.48535914     0.08600
H281        H  0.53729995  0.06134364  0.48620537     0.07700
N282        N  0.44157530  0.91209051  0.42787200    -0.36200
N283        N  0.45458113  0.93340736  0.41515693    -0.28300
C284        C  0.43496558  0.90802263  0.40350697    -0.03600
C285        C  0.40822262  0.86883167  0.40915333     0.05000
C286        C  0.41345720  0.87227805  0.42463763     0.03100
H287        H  0.43998885  0.91740830  0.39178459     0.08200
H288        H  0.39749129  0.84792854  0.43292506     0.07100
C289        C  0.32673880  0.79470144  0.38167541    -0.20300
C290        C  0.33492384  0.76186209  0.38154360    -0.06900
C291        C  0.36487218  0.76270262  0.39152911     0.14000
C292        C  0.38733997  0.79744188  0.40087964    -0.20400
C293        C  0.38083745  0.83133934  0.40030924    -0.06900
C294        C  0.34952440  0.82959501  0.39087500     0.14000
C295        C  0.33954901  0.86408928  0.39068221    -0.23700
H296        H  0.30317584  0.79355867  0.37421998     0.15200
H297        H  0.41092204  0.79871585  0.40835765     0.15300
C298        C  0.37251629  0.72673749  0.39264254    -0.23700
H299        H  0.31285536  0.85666951  0.38319195     0.05500
H300        H  0.36655219  0.89327843  0.38650655     0.08700
H301        H  0.33148388  0.86905646  0.40224962     0.08700
H302        H  0.38519076  0.72280702  0.38186853     0.08700
H303        H  0.34302629  0.69778071  0.39530472     0.08700
H304        H  0.39520771  0.73168100  0.40165693     0.05500
C305        C  0.37967499  0.59241548  0.28885858    -0.20300
C306        C  0.33970011  0.58222805  0.28411241    -0.06900
C307        C  0.32635371  0.56443887  0.26956779     0.14000
C308        C  0.35190937  0.55468540  0.26087760    -0.20400
C309        C  0.39079129  0.56283394  0.26609113    -0.08100
C310        C  0.40561111  0.58388170  0.27999540     0.14000
C311        C  0.44942640  0.59967170  0.28534604    -0.23700
H312        H  0.39091353  0.60686706  0.29974504     0.15200
H313        H  0.34099133  0.53974345  0.25002445     0.15300
C314        C  0.28612242  0.55664646  0.26274200    -0.23700
H315        H  0.45751188  0.62155515  0.29494947     0.05500
H316        H  0.47171214  0.61670443  0.27609636     0.08700
H317        H  0.45328119  0.57373192  0.28939735     0.08700
H318        H  0.28302460  0.58463398  0.26393349     0.08700
H319        H  0.25969949  0.52930193  0.26814153     0.08700
H320        H  0.28453970  0.54956516  0.25050977     0.05500
C321        C  0.01967977  0.48262306  0.33077073    -0.20300
C322        C  0.03961679  0.52617131  0.33136755    -0.06900
C323        C  0.01528679  0.54550965  0.33168985     0.14000
C324        C  0.97182996  0.52073208  0.33177420    -0.20400
C325        C  0.95189135  0.47715129  0.33163723    -0.06900
C326        C  0.97620986  0.45784247  0.33090860     0.14000
C327        C  0.95680057  0.41136810  0.32956048    -0.23700
H328        H  0.03831512  0.46784524  0.33026440     0.15200
H329        H  0.95319990  0.53553594  0.33206337     0.15300
C330        C  0.03461864  0.59212210  0.33127988    -0.23700
H331        H  0.98052196  0.40213726  0.32779894     0.05500
H332        H  0.93530201  0.39992992  0.31978913     0.08700
H333        H  0.93976078  0.39590629  0.34002403     0.08700
H334        H  0.05596722  0.60510721  0.32148570     0.08700
H335        H  0.05177019  0.60599120  0.34186469     0.08700
H336        H  0.01083541  0.60151754  0.33016617     0.05500
C337        C  0.62813929  0.23200594  0.38965062    -0.20300
C338        C  0.65405912  0.22920006  0.37883269    -0.06900
C339        C  0.65596189  0.19237725  0.37783715     0.14000
C340        C  0.63217494  0.15934779  0.38777422    -0.20400
C341        C  0.60675488  0.16225895  0.39881232    -0.06900
C342        C  0.60459668  0.19906770  0.39972372     0.14000
C343        C  0.57623309  0.20312499  0.41079465    -0.23700
H344        H  0.62633002  0.26012549  0.39019876     0.15200
H345        H  0.63330529  0.13090708  0.38689287     0.15300
C346        C  0.68186734  0.18725818  0.36593643    -0.23700
H347        H  0.57665436  0.23296493  0.40934694     0.05500
H348        H  0.58620692  0.20222087  0.42249279     0.08700
H349        H  0.54387781  0.17738639  0.40912726     0.08700
H350        H  0.71510041  0.21059985  0.36761536     0.08700
H351        H  0.67201106  0.19146518  0.35457052     0.08700
H352        H  0.67857528  0.15592608  0.36637949     0.05500
C353        C  0.61153184  0.41143452  0.29086008    -0.20300
C354        C  0.65246315  0.42460773  0.28638157    -0.06900
C355        C  0.66640982  0.44488365  0.27222213     0.14000
C356        C  0.63968828  0.45269259  0.26340906    -0.20400
C357        C  0.59933658  0.44061327  0.26820924    -0.06900
C358        C  0.58466972  0.41844281  0.28193111     0.14000
C359        C  0.54016735  0.39985706  0.28696107    -0.23700
H360        H  0.60020047  0.39546866  0.30153278     0.15200
H361        H  0.65063422  0.46893180  0.25274836     0.15300
C362        C  0.70857782  0.45730214  0.26592707    -0.23700
H363        H  0.53301754  0.37858534  0.29673229     0.05500
H364        H  0.51894689  0.38149901  0.27764515     0.08700
H365        H  0.53382161  0.42449175  0.29061860     0.08700
H366        H  0.71400226  0.43062658  0.26641342     0.08700
H367        H  0.73286521  0.48415486  0.27226083     0.08700
H368        H  0.71153719  0.46720532  0.25394642     0.05500
C369        C  0.22339990  0.67585299  0.95033384    -0.20300
C370        C  0.25639365  0.66814745  0.94918226    -0.06900
C371        C  0.25383258  0.63827456  0.93874405     0.14000
C372        C  0.21744049  0.61545269  0.93021382    -0.20400
C373        C  0.18353714  0.62150645  0.93205200    -0.06900
C374        C  0.18689601  0.65275149  0.94195673     0.14000
C375        C  0.15241206  0.66239105  0.94350517    -0.23700
H376        H  0.22575975  0.69929593  0.95815763     0.15200
H377        H  0.21499994  0.59204516  0.92235557     0.15300
C378        C  0.28967801  0.63109404  0.93633412    -0.23700
H379        H  0.16108910  0.68908315  0.95118335     0.05500
H380        H  0.12428243  0.63517050  0.94819728     0.08700
H381        H  0.14512673  0.67041333  0.93229067     0.08700
H382        H  0.29618643  0.61921067  0.94683440     0.08700
H383        H  0.31767764  0.66072048  0.93301089     0.08700
H384        H  0.28304421  0.60795920  0.92728683     0.05500
C385        C  0.41414106  0.60574282  0.06565040    -0.20300
C386        C  0.45614045  0.61735431  0.06637013    -0.06900
C387        C  0.48579178  0.65305742  0.05845437     0.14000
C388        C  0.47251352  0.67555605  0.04964905    -0.20400
C389        C  0.43029697  0.66277707  0.04833765    -0.06900
C390        C  0.40077227  0.62778808  0.05661459     0.14000
C391        C  0.35532670  0.61417929  0.05624316    -0.23700
H392        H  0.39158736  0.57864825  0.07189526     0.15200
H393        H  0.49512096  0.70271541  0.04344694     0.15300
C394        C  0.53148762  0.66805971  0.05952388    -0.23700
H395        H  0.33697135  0.58758693  0.06397455     0.05500
H396        H  0.34284411  0.60415825  0.04470751     0.08700
H397        H  0.35092965  0.64029728  0.05977221     0.08700
H398        H  0.53813962  0.64455784  0.05472685     0.08700
H399        H  0.54137806  0.67372117  0.07151304     0.08700
H400        H  0.55036988  0.69752390  0.05319689     0.05500
C401        C  0.49097169  0.02968986  0.00016574    -0.20300
C402        C  0.53445624  0.05019604  0.00008859    -0.06900
C403        C  0.55438028  0.02652847  0.00124091     0.14000
C404        C  0.53023841  0.98290702  0.00200284    -0.20400
C405        C  0.48676810  0.96241296  0.00152441    -0.06900
C406        C  0.46686909  0.98614254  0.00082524     0.14000
C407        C  0.42029485  0.96587916  0.00138741    -0.23700
H408        H  0.47575565  0.04792472  0.99961339     0.15200
H409        H  0.54536398  0.96462431  0.00280530     0.15300
C410        C  0.60088595  0.04705237  0.00227781    -0.23700
H411        H  0.41019062  0.98927211  0.00172860     0.05500
H412        H  0.40824318  0.94625298  0.01166403     0.08700
H413        H  0.40627437  0.94643998  0.99124015     0.08700
H414        H  0.61233149  0.06906523  0.01191118     0.08700
H415        H  0.61542184  0.06402704  0.99168744     0.08700
H416        H  0.61097575  0.02394759  0.00405938     0.05500
C417        C  0.81554499  0.37105221  0.92851433    -0.20300
C418        C  0.84720897  0.40737000  0.93526335    -0.06900
C419        C  0.84068552  0.41797778  0.94994764     0.14000
C420        C  0.80387186  0.39101812  0.95765115    -0.20400
C421        C  0.77282897  0.35394015  0.95112436    -0.06900
C422        C  0.77843568  0.34433870  0.93617605     0.14000
C423        C  0.74504029  0.30716760  0.92791524    -0.23700
H424        H  0.82000160  0.36322382  0.91716730     0.15200
H425        H  0.79952070  0.39892998  0.96899776     0.15300
C426        C  0.87110735  0.45837747  0.95743563    -0.23700
H427        H  0.75306297  0.30730477  0.91583986     0.05500
H428        H  0.71539989  0.30732075  0.92840357     0.08700
H429        H  0.74095294  0.27808165  0.93290563     0.08700
H430        H  0.87929532  0.48482778  0.94966528     0.08700
H431        H  0.89930868  0.45783394  0.96087465     0.08700
H432        H  0.85795319  0.46384283  0.96783888     0.05500
C433        C  0.53680731  0.36886390  0.05544523    -0.20300
C434        C  0.56743612  0.39675399  0.06538650    -0.06900
C435        C  0.60653518  0.39938794  0.06566717     0.14000
C436        C  0.61424112  0.37449498  0.05578984    -0.20400
C437        C  0.58350864  0.34654992  0.04588732    -0.06900
C438        C  0.54422610  0.34345217  0.04578765     0.14000
C439        C  0.51063843  0.31457872  0.03510181    -0.23700
H440        H  0.50696527  0.36717811  0.05518414     0.15200
H441        H  0.64447063  0.37703133  0.05569939     0.15300
C442        C  0.64062975  0.42956386  0.07590138    -0.23700
H443        H  0.48237466  0.31716091  0.03614833     0.05500
H444        H  0.50172794  0.28191034  0.03758269     0.08700
H445        H  0.52192156  0.32223859  0.02329040     0.08700
H446        H  0.63091331  0.42183561  0.08785214     0.08700
H447        H  0.64758092  0.46170610  0.07346929     0.08700
H448        H  0.66961248  0.42852623  0.07432972     0.05500
C449        C  0.56334394  0.21834527  0.60953319    -0.20300
C450        C  0.57496460  0.21496127  0.62430848    -0.06900
C451        C  0.57546544  0.17848002  0.62848976     0.14000
C452        C  0.56496087  0.14708052  0.61777311    -0.20400
C453        C  0.55299502  0.15021743  0.60303439    -0.06900
C454        C  0.55219092  0.18653497  0.59886489     0.14000
C455        C  0.53788863  0.19158569  0.58353143    -0.23700
H456        H  0.56270740  0.24609869  0.60631272     0.15200
H457        H  0.56569806  0.11942038  0.62104721     0.15300
C458        C  0.58461097  0.17078666  0.64435604    -0.23700
H459        H  0.53489303  0.21975205  0.58293785     0.05500
H460        H  0.50704133  0.16431188  0.58092823     0.08700
H461        H  0.56083374  0.19529468  0.57484578     0.08700
H462        H  0.56538636  0.17628464  0.65254796     0.08700
H463        H  0.61799170  0.19100265  0.64687743     0.08700
H464        H  0.57748875  0.13824125  0.64593590     0.05500
C465        C  0.80649672  0.44369265  0.73939273    -0.20300
C466        C  0.83451589  0.43134028  0.73459872    -0.06900
C467        C  0.82495333  0.40630563  0.72155702     0.14000
C468        C  0.78950998  0.39700044  0.71314785    -0.20400
C469        C  0.76220251  0.41081305  0.71747792    -0.06900
C470        C  0.77045290  0.43370170  0.73109767     0.14000
C471        C  0.74136012  0.44692415  0.73733933    -0.23700
H472        H  0.81327646  0.46206342  0.74957791     0.15200
H473        H  0.78357735  0.37905855  0.70291558     0.15300
C474        C  0.85057600  0.38737948  0.71670659    -0.23700
H475        H  0.74975314  0.45875848  0.74905871     0.05500
H476        H  0.70914755  0.42012381  0.73758338     0.08700
H477        H  0.74315750  0.47265482  0.73049191     0.08700
H478        H  0.85540969  0.37140145  0.72640548     0.08700
H479        H  0.88078157  0.41150241  0.71209908     0.08700
H480        H  0.83500514  0.36394184  0.70765773     0.05500
C481        C  0.45871353  0.46901766  0.66659268    -0.20300
C482        C  0.48162277  0.51254719  0.66561480    -0.06900
C483        C  0.52547112  0.53278993  0.66504588     0.14000
C484        C  0.54498769  0.50885812  0.66510435    -0.20400
C485        C  0.52196395  0.46524641  0.66566023    -0.06900
C486        C  0.47818587  0.44510014  0.66661369     0.14000
C487        C  0.45175204  0.39862373  0.66839732    -0.23700
H488        H  0.42519028  0.45355144  0.66729282     0.15200
H489        H  0.57854747  0.52431537  0.66469926     0.15300
C490        C  0.55203633  0.57951029  0.66511550    -0.23700
H491        H  0.41867594  0.38879030  0.67038333     0.05500
H492        H  0.46267864  0.38812895  0.67818995     0.08700
H493        H  0.45303407  0.38280479  0.65801897     0.08700
H494        H  0.54384911  0.59241621  0.67494478     0.08700
H495        H  0.54760137  0.59262821  0.65453727     0.08700
H496        H  0.58554580  0.58980435  0.66593292     0.05500
C497        C  0.46085773  0.78262396  0.61742969    -0.20300
C498        C  0.41932442  0.75042955  0.61783841    -0.06900
C499        C  0.38967576  0.75328990  0.60876707     0.14000
C500        C  0.40232942  0.78850829  0.59961623    -0.20400
C501        C  0.44355809  0.82116785  0.59960477    -0.06900
C502        C  0.47322946  0.81826936  0.60857697     0.14000
C503        C  0.51794695  0.85258890  0.60873163    -0.23700
H504        H  0.48351375  0.78031625  0.62437297     0.15200
H505        H  0.37977269  0.79107739  0.59270257     0.15300
C506        C  0.34494731  0.71901627  0.60842388    -0.23700
H507        H  0.53716906  0.84484558  0.61610446     0.05500
H508        H  0.52032490  0.88169529  0.61301345     0.08700
H509        H  0.53085428  0.85789195  0.59712722     0.08700
H510        H  0.33046700  0.71568992  0.61963963     0.08700
H511        H  0.34298690  0.68925458  0.60524376     0.08700
H512        H  0.32667535  0.72551888  0.60010757     0.05500
C513        C  0.19856352  0.54583720  0.73786059    -0.20300
C514        C  0.16856925  0.55437698  0.73211146    -0.06900
C515        C  0.17494113  0.57289161  0.71766680     0.14000
C516        C  0.20938613  0.57973118  0.70908162    -0.20400
C517        C  0.23880234  0.56989282  0.71452352    -0.06900
C518        C  0.23363989  0.55348264  0.72933849     0.14000
C519        C  0.26526951  0.54519579  0.73656351    -0.23700
H520        H  0.19423382  0.53252102  0.74905483     0.15200
H521        H  0.21303748  0.59274202  0.69787682     0.15300
C522        C  0.14704629  0.58771623  0.71139954    -0.23700
H523        H  0.25862359  0.53754400  0.74873117     0.05500
H524        H  0.29665227  0.57314218  0.73565209     0.08700
H525        H  0.26469623  0.51816080  0.73114283     0.08700
H526        H  0.14303470  0.60743543  0.71983181     0.08700
H527        H  0.11655225  0.56101393  0.70824001     0.08700
H528        H  0.16026237  0.60670916  0.70103483     0.05500
loop_ 
_geom_bond_atom_site_label_1 
_geom_bond_atom_site_label_2 
_geom_bond_distance 
_geom_bond_site_symmetry_2 
_ccdc_geom_bond_type 
N1            N2   1.320       .  A
N1            C5   1.350       .  A
N1           Cu9   2.092       .  S
N2            C3   1.341       .  A
N2           Cu8   2.067       .  S
C3            C4   1.387       .  A
C3            H6   1.082       .  S
C4            C5   1.395       .  A
C4          C517   1.497       .  S
C5            H7   1.078       .  S
Cu8          N11   2.066       .  S
Cu9          N19   2.093       .  S
Cu10         N12   2.080       .  S
Cu10         N18   2.082       .  S
N11          N12   1.321       .  A
N11          C15   1.344       .  A
N12          C13   1.346       .  A
C13          C14   1.386       .  A
C13          H16   1.082       .  S
C14          C15   1.383       .  A
C14         C498   1.479       .  S
C15          H17   1.081       .  S
N18          N19   1.324       .  A
N18          C22   1.346       .  A
N19          C20   1.347       .  A
C20          C21   1.387       .  A
C20          H23   1.082       .  S
C21          C22   1.385       .  A
C21         C482   1.487       .  S
C22          H24   1.081       .  S
N25          N26   1.319       .  A
N25          C29   1.348       .  A
N25         Cu33   2.086       .  S
N26          C27   1.341       .  A
N26         Cu32   2.065       .  S
C27          C28   1.389       .  A
C27          H30   1.081       .  S
C28          C29   1.394       .  A
C28         C469   1.498       .  S
C29          H31   1.077       .  S
Cu32         N35   2.065       .  S
Cu33         N43   2.087       .  S
Cu34         N36   2.078       .  S
Cu34         N42   2.080       .  S
N35          N36   1.320       .  A
N35          C39   1.342       .  A
N36          C37   1.346       .  A
C37          C38   1.389       .  A
C37          H40   1.082       .  S
C38          C39   1.386       .  A
C38         C450   1.488       .  S
C39          H41   1.078       .  S
N42          N43   1.324       .  A
N42          C46   1.346       .  A
N43          C44   1.347       .  A
C44          C45   1.386       .  A
C44          H47   1.082       .  S
C45          C46   1.386       .  A
C45         C485   1.486       .  S
C46          H48   1.081       .  S
N49          N50   1.320       .  A
N49          C53   1.342       .  A
N49         Cu57   2.067   1_655  S
N50          C51   1.349       .  A
N50         Cu56   2.082       .  S
C51          C52   1.390       .  A
C51          H54   1.082       .  S
C52          C53   1.385       .  A
C52         C466   1.488       .  S
C53          H55   1.079       .  S
Cu56         N59   2.083       .  S
Cu57         N67   2.067       .  S
Cu58         N60   2.093       .  S
Cu58         N66   2.092       .  S
N59          N60   1.325   1_655  A
N59          C63   1.346       .  A
N60          C61   1.348       .  A
C61          C62   1.385       .  A
C61          H64   1.082       .  S
C62          C63   1.382   1_455  A
C62         C158   1.476       .  S
C63          H65   1.082       .  S
N66          N67   1.321       .  A
N66          C70   1.350       .  A
N67          C68   1.342       .  A
C68          C69   1.385       .  A
C68          H71   1.079       .  S
C69          C70   1.391       .  A
C69         C514   1.490       .  S
C70          H72   1.082       .  S
N73          N74   1.322       .  A
N73          C77   1.343       .  A
N73         Cu81   2.059       .  S
N74          C75   1.348       .  A
N74         Cu80   2.086       .  S
C75          C76   1.385       .  A
C75          H78   1.082       .  S
C76          C77   1.378       .  A
C76         C501   1.474       .  S
C77          H79   1.082       .  S
Cu80         N83   2.088       .  S
Cu81         N91   2.058   1_565  S
Cu82         N84   2.079       .  S
Cu82         N90   2.078       .  S
N83          N84   1.324   1_565  A
N83          C87   1.346       .  A
N84          C85   1.346       .  A
C85          C86   1.382   1_545  A
C85          H88   1.082       .  S
C86          C87   1.385       .  A
C86         C278   1.475       .  S
C87          H89   1.082       .  S
N90          N91   1.319       .  A
N90          C94   1.347       .  A
N91          C92   1.340       .  A
C92          C93   1.385       .  A
C92          H95   1.082       .  S
C93          C94   1.391       .  A
C93         C453   1.489       .  S
C94          H96   1.079       .  S
N97          N98   1.321       .  A
N97         C101   1.347       .  A
N97        Cu105   2.079       .  S
N98          C99   1.345       .  A
N98        Cu104   2.070   1_554  S
C99         C100   1.382       .  A
C99         H102   1.082       .  S
C100        C101   1.385       .  A
C100        C437   1.478       .  S
C101        H103   1.082       .  S
Cu104       N107   2.069       .  S
Cu105       N115   2.079       .  S
Cu106       N108   2.086       .  S
Cu106       N114   2.087       .  S
N107        N108   1.321       .  A
N107        C111   1.342       .  A
N108        C109   1.347       .  A
C109        C110   1.390       .  A
C109        H112   1.079       .  S
C110        C111   1.385       .  A
C110        C421   1.489       .  S
C111        H113   1.082       .  S
N114        N115   1.323   1_556  A
N114        C118   1.348       .  A
N115        C116   1.345       .  A
C116        C117   1.383   1_554  A
C116        H119   1.082       .  S
C117        C118   1.387       .  A
C117        C402   1.483   1_556  S
C118        H120   1.081       .  S
N121        N122   1.323       .  A
N121        C125   1.347       .  A
N121       Cu129   2.083       .  S
N122        C123   1.345       .  A
N122       Cu128   2.080   1_554  S
C123        C124   1.384       .  A
C123        H126   1.082       .  S
C124        C125   1.385       .  A
C124        C389   1.481       .  S
C125        H127   1.082       .  S
Cu128       N131   2.079       .  S
Cu129       N139   2.083       .  S
Cu130       N132   2.074       .  S
Cu130       N138   2.075       .  S
N131        N132   1.322       .  A
N131        C135   1.346       .  A
N132        C133   1.346       .  A
C133        C134   1.384       .  A
C133        H136   1.082       .  S
C134        C135   1.385       .  A
C134        C370   1.480       .  S
C135        H137   1.082       .  S
N138        N139   1.323   1_556  A
N138        C142   1.344       .  A
N139        C140   1.348       .  A
C140        C141   1.385       .  A
C140        H143   1.082       .  S
C141        C142   1.383   1_554  A
C141        C405   1.481       .  S
C142        H144   1.081       .  S
N145        N146   1.322       .  A
N145        C149   1.344       .  A
N145       Cu153   2.072       .  S
N146        C147   1.347       .  A
N146       Cu152   2.078       .  S
C147        C148   1.384       .  A
C147        H150   1.082       .  S
C148        C149   1.382       .  A
C148        C373   1.478       .  S
C149        H151   1.082       .  S
Cu152       N155   2.079       .  S
Cu153       N163   2.071   1_455  S
Cu154       N156   2.086       .  S
Cu154       N162   2.085       .  S
N155        N156   1.323   1_455  A
N155        C159   1.346       .  A
N156        C157   1.347       .  A
C157        C158   1.386   1_655  A
C157        H160   1.082       .  S
C158        C159   1.383       .  A
C159        H161   1.082       .  S
N162        N163   1.321       .  A
N162        C166   1.347       .  A
N163        C164   1.343       .  A
C164        C165   1.386       .  A
C164        H167   1.079       .  S
C165        C166   1.389       .  A
C165        C418   1.489       .  S
C166        H168   1.082       .  S
N169        N170   1.322       .  A
N169        C173   1.344       .  A
N169       Cu177   2.072       .  S
N170        C171   1.349       .  A
N170       Cu176   2.089       .  S
C171        C172   1.387       .  A
C171        H174   1.082       .  S
C172        C173   1.381       .  A
C172        C434   1.481       .  S
C173        H175   1.082       .  S
Cu176       N179   2.090       .  S
Cu177       N187   2.072       .  S
Cu178       N180   2.082       .  S
Cu178       N186   2.081       .  S
N179        N180   1.325       .  A
N179        C183   1.347       .  A
N180        C181   1.346       .  A
C181        C182   1.383       .  A
C181        H184   1.082       .  S
C182        C183   1.385       .  A
C182        C254   1.476       .  S
C183        H185   1.082       .  S
N186        N187   1.322       .  A
N186        C190   1.348       .  A
N187        C188   1.344       .  A
C188        C189   1.382       .  A
C188        H191   1.082       .  S
C189        C190   1.386       .  A
C189        C386   1.480       .  S
C190        H192   1.082       .  S
N193        N194   1.320       .  A
N193        C197   1.347       .  A
N193       Cu201   2.078       .  S
N194        C195   1.342       .  A
N194       Cu200   2.075       .  S
C195        C196   1.389       .  A
C195        H198   1.082       .  S
C196        C197   1.391       .  A
C196        C354   1.495       .  S
C197        H199   1.078       .  S
Cu200       N203   2.076       .  S
Cu201       N211   2.079       .  S
Cu202       N204   2.084       .  S
Cu202       N210   2.084       .  S
N203        N204   1.322       .  A
N203        C207   1.347       .  A
N204        C205   1.347       .  A
C205        C206   1.385       .  A
C205        H208   1.082       .  S
C206        C207   1.383       .  A
C206        C338   1.480       .  S
C207        H209   1.082       .  S
N210        N211   1.323       .  A
N210        C214   1.346       .  A
N211        C212   1.345       .  A
C212        C213   1.385       .  A
C212        H215   1.082       .  S
C213        C214   1.386       .  A
C213        C325   1.485       .  S
C214        H216   1.080       .  S
N217        N218   1.320       .  A
N217        C221   1.346       .  A
N217       Cu225   2.083       .  S
N218        C219   1.343       .  A
N218       Cu224   2.073       .  S
C219        C220   1.390       .  A
C219        H222   1.081       .  S
C220        C221   1.393       .  A
C220        C306   1.498       .  S
C221        H223   1.077       .  S
Cu224       N227   2.072       .  S
Cu225       N235   2.083       .  S
Cu226       N228   2.071       .  S
Cu226       N234   2.072       .  S
N227        N228   1.321       .  A
N227        C231   1.345       .  A
N228        C229   1.345       .  A
C229        C230   1.383       .  A
C229        H232   1.082       .  S
C230        C231   1.384       .  A
C230        C290   1.477       .  S
C231        H233   1.081       .  S
N234        N235   1.322       .  A
N234        C238   1.345       .  A
N235        C236   1.346       .  A
C236        C237   1.386       .  A
C236        H239   1.082       .  S
C237        C238   1.385       .  A
C237        C322   1.485       .  S
C238        H240   1.080       .  S
N241        N242   1.320       .  A
N241        C245   1.340       .  A
N241       Cu249   2.057       .  S
N242        C243   1.348       .  A
N242       Cu248   2.083       .  S
C243        C244   1.390       .  A
C243        H246   1.082       .  S
C244        C245   1.383       .  A
C244        C357   1.486       .  S
C245        H247   1.079       .  S
Cu248       N251   2.085       .  S
Cu249       N259   2.057       .  S
Cu250       N252   2.095       .  S
Cu250       N258   2.093       .  S
N251        N252   1.326       .  A
N251        C255   1.347       .  A
N252        C253   1.347       .  A
C253        C254   1.385       .  A
C253        H256   1.082       .  S
C254        C255   1.383       .  A
C255        H257   1.082       .  S
N258        N259   1.320       .  A
N258        C262   1.350       .  A
N259        C260   1.340       .  A
C260        C261   1.383       .  A
C260        H263   1.079       .  S
C261        C262   1.393       .  A
C261        C309   1.489       .  S
C262        H264   1.082       .  S
N265        N266   1.322       .  A
N265        C269   1.343       .  A
N265       Cu273   2.067   1_545  S
N266        C267   1.350       .  A
N266       Cu272   2.096       .  S
C267        C268   1.390       .  A
C267        H270   1.081       .  S
C268        C269   1.382       .  A
C268        C341   1.486       .  S
C269        H271   1.082       .  S
Cu272       N275   2.097       .  S
Cu273       N283   2.066       .  S
Cu274       N276   2.074       .  S
Cu274       N282   2.073       .  S
N275        N276   1.325   1_545  A
N275        C279   1.348       .  A
N276        C277   1.345       .  A
C277        C278   1.381       .  A
C277        H280   1.082       .  S
C278        C279   1.386   1_565  A
C279        H281   1.082       .  S
N282        N283   1.321       .  A
N282        C286   1.347       .  A
N283        C284   1.342       .  A
C284        C285   1.381       .  A
C284        H287   1.082       .  S
C285        C286   1.384       .  A
C285        C293   1.474       .  S
C286        H288   1.082       .  S
C289        C290   1.402       .  A
C289        C294   1.402       .  A
C289        H296   1.084       .  S
C290        C291   1.414       .  A
C291        C292   1.405       .  A
C291        C298   1.507       .  S
C292        C293   1.401       .  A
C292        H297   1.084       .  S
C293        C294   1.412       .  A
C294        C295   1.507       .  S
C295        H299   1.111       .  S
C295        H300   1.109       .  S
C295        H301   1.110       .  S
C298        H302   1.108       .  S
C298        H303   1.110       .  S
C298        H304   1.111       .  S
C305        C306   1.407       .  A
C305        C310   1.402       .  A
C305        H312   1.082       .  S
C306        C307   1.421       .  A
C307        C308   1.409       .  A
C307        C314   1.506       .  S
C308        C309   1.403       .  A
C308        H313   1.084       .  S
C309        C310   1.416       .  A
C310        C311   1.509       .  S
C311        H315   1.111       .  S
C311        H316   1.110       .  S
C311        H317   1.106       .  S
C314        H318   1.110       .  S
C314        H319   1.107       .  S
C314        H320   1.111       .  S
C321        C322   1.404       .  A
C321        C326   1.406   1_455  A
C321        H328   1.084       .  S
C322        C323   1.416       .  A
C323        C324   1.405   1_455  A
C323        C330   1.507       .  S
C324        C325   1.404       .  A
C324        H329   1.084       .  S
C325        C326   1.416       .  A
C326        C327   1.507       .  S
C327        H331   1.111       .  S
C327        H332   1.110       .  S
C327        H333   1.107       .  S
C330        H334   1.110       .  S
C330        H335   1.107       .  S
C330        H336   1.111       .  S
C337        C338   1.403       .  A
C337        C342   1.409       .  A
C337        H344   1.084       .  S
C338        C339   1.411       .  A
C339        C340   1.405       .  A
C339        C346   1.507       .  S
C340        C341   1.405       .  A
C340        H345   1.084       .  S
C341        C342   1.416       .  A
C342        C343   1.506       .  S
C343        H347   1.111       .  S
C343        H348   1.108       .  S
C343        H349   1.110       .  S
C346        H350   1.109       .  S
C346        H351   1.111       .  S
C346        H352   1.111       .  S
C353        C354   1.406       .  A
C353        C358   1.402       .  A
C353        H360   1.083       .  S
C354        C355   1.420       .  A
C355        C356   1.408       .  A
C355        C362   1.506       .  S
C356        C357   1.403       .  A
C356        H361   1.084       .  S
C357        C358   1.415       .  A
C358        C359   1.509       .  S
C359        H363   1.111       .  S
C359        H364   1.110       .  S
C359        H365   1.106       .  S
C362        H366   1.110       .  S
C362        H367   1.107       .  S
C362        H368   1.111       .  S
C369        C370   1.402       .  A
C369        C374   1.403       .  A
C369        H376   1.084       .  S
C370        C371   1.414       .  A
C371        C372   1.407       .  A
C371        C378   1.506       .  S
C372        C373   1.403       .  A
C372        H377   1.084       .  S
C373        C374   1.413       .  A
C374        C375   1.507       .  S
C375        H379   1.111       .  S
C375        H380   1.109       .  S
C375        H381   1.110       .  S
C378        H382   1.109       .  S
C378        H383   1.110       .  S
C378        H384   1.111       .  S
C385        C386   1.402       .  A
C385        C390   1.406       .  A
C385        H392   1.084       .  S
C386        C387   1.414       .  A
C387        C388   1.405       .  A
C387        C394   1.507       .  S
C388        C389   1.403       .  A
C388        H393   1.084       .  S
C389        C390   1.414       .  A
C390        C391   1.507       .  S
C391        H395   1.111       .  S
C391        H396   1.108       .  S
C391        H397   1.110       .  S
C394        H398   1.109       .  S
C394        H399   1.110       .  S
C394        H400   1.111       .  S
C401        C402   1.403       .  A
C401        C406   1.404   1_545  A
C401        H408   1.084   1_554  S
C402        C403   1.415       .  A
C403        C404   1.407   1_545  A
C403        C410   1.507       .  S
C404        C405   1.403       .  A
C404        H409   1.084       .  S
C405        C406   1.414       .  A
C406        C407   1.507       .  S
C407        H411   1.111       .  S
C407        H412   1.110       .  S
C407        H413   1.108   1_554  S
C410        H414   1.110       .  S
C410        H415   1.108   1_554  S
C410        H416   1.111       .  S
C417        C418   1.406       .  A
C417        C422   1.407       .  A
C417        H424   1.084       .  S
C418        C419   1.417       .  A
C419        C420   1.403       .  A
C419        C426   1.508       .  S
C420        C421   1.405       .  A
C420        H425   1.084       .  S
C421        C422   1.416       .  A
C422        C423   1.507       .  S
C423        H427   1.111       .  S
C423        H428   1.110       .  S
C423        H429   1.107       .  S
C426        H430   1.110       .  S
C426        H431   1.106       .  S
C426        H432   1.111       .  S
C433        C434   1.403       .  A
C433        C438   1.404       .  A
C433        H440   1.084       .  S
C434        C435   1.413       .  A
C435        C436   1.407       .  A
C435        C442   1.506       .  S
C436        C437   1.403       .  A
C436        H441   1.084       .  S
C437        C438   1.412       .  A
C438        C439   1.507       .  S
C439        H443   1.111       .  S
C439        H444   1.109       .  S
C439        H445   1.110       .  S
C442        H446   1.109       .  S
C442        H447   1.110       .  S
C442        H448   1.111       .  S
C449        C450   1.405       .  A
C449        C454   1.406       .  A
C449        H456   1.084       .  S
C450        C451   1.417       .  A
C451        C452   1.402       .  A
C451        C458   1.508       .  S
C452        C453   1.405       .  A
C452        H457   1.084       .  S
C453        C454   1.417       .  A
C454        C455   1.506       .  S
C455        H459   1.111       .  S
C455        H460   1.110       .  S
C455        H461   1.107       .  S
C458        H462   1.110       .  S
C458        H463   1.107       .  S
C458        H464   1.111       .  S
C465        C466   1.404       .  A
C465        C470   1.410       .  A
C465        H472   1.084       .  S
C466        C467   1.415       .  A
C467        C468   1.402       .  A
C467        C474   1.509       .  S
C468        C469   1.407       .  A
C468        H473   1.082       .  S
C469        C470   1.420       .  A
C470        C471   1.506       .  S
C471        H475   1.111       .  S
C471        H476   1.110       .  S
C471        H477   1.107       .  S
C474        H478   1.110       .  S
C474        H479   1.106       .  S
C474        H480   1.111       .  S
C481        C482   1.403       .  A
C481        C486   1.405       .  A
C481        H488   1.084       .  S
C482        C483   1.416       .  A
C483        C484   1.407       .  A
C483        C490   1.507       .  S
C484        C485   1.404       .  A
C484        H489   1.084       .  S
C485        C486   1.416       .  A
C486        C487   1.507       .  S
C487        H491   1.111       .  S
C487        H492   1.110       .  S
C487        H493   1.107       .  S
C490        H494   1.110       .  S
C490        H495   1.107       .  S
C490        H496   1.111       .  S
C497        C498   1.403       .  A
C497        C502   1.404       .  A
C497        H504   1.084       .  S
C498        C499   1.415       .  A
C499        C500   1.405       .  A
C499        C506   1.507       .  S
C500        C501   1.400       .  A
C500        H505   1.084       .  S
C501        C502   1.412       .  A
C502        C503   1.507       .  S
C503        H507   1.111       .  S
C503        H508   1.110       .  S
C503        H509   1.110       .  S
C506        H510   1.108       .  S
C506        H511   1.110       .  S
C506        H512   1.111       .  S
C513        C514   1.405       .  A
C513        C518   1.411       .  A
C513        H520   1.084       .  S
C514        C515   1.416       .  A
C515        C516   1.402       .  A
C515        C522   1.509       .  S
C516        C517   1.407       .  A
C516        H521   1.083       .  S
C517        C518   1.419       .  A
C518        C519   1.506       .  S
C519        H523   1.111       .  S
C519        H524   1.110       .  S
C519        H525   1.107       .  S
C522        H526   1.110       .  S
C522        H527   1.106       .  S
C522        H528   1.111       .  S
