geometry optimzed in LAMMPS
_audit_creation_date              2020-12-01 
_audit_creation_method            'lammps2cif' 
_symmetry_space_group_name_H-M    'P1' 
_symmetry_Int_Tables_number       1 
_symmetry_cell_setting            triclinic 
loop_ 
_symmetry_equiv_pos_as_xyz 
  x,y,z 
_cell_length_a                    44.05361157 
_cell_length_b                    44.17039992075111 
_cell_length_c                    44.198823703010916 
_cell_angle_alpha                 90.07590967936208 
_cell_angle_beta                  90.00437383251182 
_cell_angle_gamma                 90.04255092535271 
loop_ 
_atom_site_label 
_atom_site_type_symbol 
_atom_site_fract_x 
_atom_site_fract_y 
_atom_site_fract_z 
_atom_site_charge 
O1          O  0.46484932  0.09108163  0.21936030    -0.70800
O2          O  0.02798255  0.08107110  0.28225159    -0.71700
O3          O  0.46439926  0.09829712  0.28377151    -0.60400
O4          O  0.03192757  0.08110269  0.21772872    -0.68800
O5          O  0.03421755  0.13129564  0.21683455    -0.68300
O6          O  0.47074547  0.14789109  0.27853401    -0.59600
O7          O  0.03358669  0.13102065  0.28113843    -0.72100
O8          O  0.46930411  0.14098250  0.21481397    -0.70900
Cu9        Cu  0.99791706  0.08158808  0.24836932     1.04600
Cu10       Cu  0.50246499  0.14246513  0.24671538     1.04300
C11         C  0.45719840  0.11582601  0.20680270     0.95400
C12         C  0.04056358  0.10513750  0.29211798     0.94600
C13         C  0.45749148  0.12553857  0.29106777     0.86700
C14         C  0.04323917  0.10557581  0.20714442     0.93000
C15         C  0.14765642  0.10041457  0.12350913     0.04500
C16         C  0.12858984  0.10391620  0.14915265     0.04500
C17         C  0.10571789  0.12651627  0.14933898     0.04500
C18         C  0.10442388  0.14769560  0.12527444     0.04500
C19         C  0.12621852  0.14671881  0.10191825     0.04500
C20         C  0.14691250  0.12239023  0.10030033     0.04500
C21         C  0.40090738  0.11955953  0.35710915     0.04500
C22         C  0.37529080  0.10026966  0.35448056     0.04500
C23         C  0.35000205  0.10474640  0.37384258     0.04500
C24         C  0.35074986  0.12752564  0.39630506     0.04500
C25         C  0.37680048  0.14589542  0.39989824     0.04500
C26         C  0.40147532  0.14284212  0.37939456     0.04500
O27         O  0.22602859  0.46641507  0.15518342    -0.70800
O28         O  0.28744399  0.03162954  0.14762177    -0.71700
O29         O  0.22428087  0.02929360  0.15817921    -0.60400
O30         O  0.28867511  0.46756545  0.14156004    -0.68800
O31         O  0.27926598  0.47142674  0.09231570    -0.68300
O32         O  0.21621571  0.03141845  0.10863325    -0.59600
O33         O  0.28014481  0.03255582  0.09785288    -0.72100
O34         O  0.21611269  0.46912467  0.10601523    -0.70900
Cu35       Cu  0.25699001  0.99819781  0.15333617     1.04600
Cu36       Cu  0.24693324  0.50229107  0.09977339     1.04300
C37         C  0.21156351  0.45710809  0.13195527     0.95400
C38         C  0.29406498  0.04185664  0.12140086     0.94600
C39         C  0.21051125  0.04065998  0.13549393     0.86700
C40         C  0.29437267  0.46015081  0.11415611     0.93000
C41         C  0.35437820  0.39844899  0.12395089     0.04500
C42         C  0.35693740  0.37825756  0.09929046     0.04500
C43         C  0.38140545  0.35762486  0.09774548     0.04500
C44         C  0.40413036  0.35795402  0.12049199     0.04500
C45         C  0.40290422  0.38014915  0.14379347     0.04500
C46         C  0.37805476  0.40049284  0.14555108     0.04500
O47         O  0.03161118  0.35971025  0.28846264    -0.70800
O48         O  0.47094554  0.34208520  0.22214402    -0.71700
O49         O  0.03629428  0.35292593  0.22476101    -0.60400
O50         O  0.46774144  0.35563623  0.28459576    -0.68800
O51         O  0.46640026  0.40454835  0.27284290    -0.68300
O52         O  0.04340378  0.40258366  0.22108915    -0.59600
O53         O  0.47204325  0.39110499  0.21121951    -0.72100
O54         O  0.03456831  0.40979667  0.28525099    -0.70900
Cu55       Cu  0.50177397  0.34753249  0.25560063     1.04600
Cu56       Cu  0.00776183  0.41140120  0.24892780     1.04300
C57         C  0.04191497  0.38508806  0.29812214     0.95400
C58         C  0.46152455  0.36456609  0.20656478     0.94600
C59         C  0.05041616  0.37542417  0.21357363     0.86700
C60         C  0.45591369  0.38188291  0.28732711     0.93000
C61         C  0.10810533  0.34880595  0.37701117     0.04500
C62         C  0.10784783  0.37034978  0.35325496     0.04500
C63         C  0.13136955  0.39218878  0.35053178     0.04500
C64         C  0.15692796  0.39048841  0.36996458     0.04500
C65         C  0.15816725  0.36809356  0.39285666     0.04500
C66         C  0.13369091  0.34752770  0.39676958     0.04500
O67         O  0.22421256  0.03127324  0.34735460    -0.70800
O68         O  0.28539807  0.46632484  0.36565737    -0.71700
O69         O  0.22140230  0.46890100  0.35525997    -0.60400
O70         O  0.28810824  0.02653577  0.35461455    -0.68800
O71         O  0.28317277  0.03032204  0.40455328    -0.68300
O72         O  0.21320800  0.47073588  0.40484451    -0.59600
O73         O  0.27764483  0.46696311  0.41527465    -0.72100
O74         O  0.21855739  0.03527809  0.39715646    -0.70900
Cu75       Cu  0.25542731  0.49957161  0.35851909     1.04600
Cu76       Cu  0.24814810  0.00149687  0.40505031     1.04300
C77         C  0.21159196  0.04348507  0.37029459     0.95400
C78         C  0.29181266  0.45675709  0.39215442     0.94600
C79         C  0.20629919  0.46085309  0.37862595     0.86700
C80         C  0.29689255  0.03708064  0.38006520     0.93000
O81         O  0.08981596  0.28510861  0.47317256    -0.70800
O82         O  0.09425455  0.21787268  0.02595877    -0.71700
O83         O  0.10770792  0.28064675  0.03519248    -0.60400
O84         O  0.08913539  0.22173261  0.46091363    -0.68800
O85         O  0.13939096  0.21897620  0.46398578    -0.68300
O86         O  0.15718332  0.27111694  0.03562085    -0.59600
O87         O  0.14381407  0.20903122  0.02851419    -0.72100
O88         O  0.14013072  0.28267831  0.47143563    -0.70900
Cu89       Cu  0.10056830  0.25388725  0.99875821     1.04600
Cu90       Cu  0.14069836  0.24688374  0.49985611     1.04300
C91         C  0.11517999  0.29534970  0.46373333     0.95400
C92         C  0.11656600  0.20256123  0.03616670     0.94600
C93         C  0.13411848  0.28462214  0.04665882     0.86700
C94         C  0.11458243  0.21224860  0.45067422     0.93000
O95         O  0.39405884  0.28795829  0.03086269    -0.70800
O96         O  0.40769823  0.22760409  0.46522538    -0.71700
O97         O  0.39475806  0.28929165  0.46954547    -0.60400
O98         O  0.40732249  0.22489653  0.03294192    -0.68800
O99         O  0.35775052  0.21599591  0.03412495    -0.68300
O100        O  0.34566491  0.27783470  0.46877772    -0.59600
O101        O  0.35873133  0.21566602  0.46760990    -0.72100
O102        O  0.34460102  0.27825233  0.03107797    -0.70900
Cu103      Cu  0.40378948  0.25685859  0.49975051     1.04600
Cu104      Cu  0.34944619  0.24481185  0.00044830     1.04300
C105        C  0.36736998  0.29338119  0.04073736     0.95400
C106        C  0.38480135  0.21298701  0.45522861     0.94600
C107        C  0.36813798  0.29298537  0.45864902     0.86700
C108        C  0.38439756  0.21133846  0.04446002     0.93000
C109        C  0.35533974  0.39853755  0.37524617     0.04500
C110        C  0.38072529  0.40221271  0.35569272     0.04500
C111        C  0.40530468  0.38150325  0.35731800     0.04500
C112        C  0.40513028  0.35775760  0.37876713     0.04500
C113        C  0.38123526  0.35594627  0.40011544     0.04500
C114        C  0.35561149  0.37519244  0.39720824     0.04500
O115        O  0.38597457  0.46943923  0.28089599    -0.70800
O116        O  0.37700738  0.03491099  0.21830443    -0.71700
O117        O  0.37857954  0.03272832  0.28231194    -0.60400
O118        O  0.38245437  0.47022507  0.21652458    -0.68800
O119        O  0.33223747  0.46756437  0.21978415    -0.68300
O120        O  0.32818028  0.03150365  0.28255710    -0.59600
O121        O  0.32667028  0.03272792  0.21953730    -0.72100
O122        O  0.33562606  0.46749236  0.28279628    -0.70900
Cu123      Cu  0.38076272  0.00135501  0.24949586     1.04600
Cu124      Cu  0.33070512  0.49998294  0.25178165     1.04300
C125        C  0.36151045  0.45770312  0.29121188     0.95400
C126        C  0.35104916  0.04502051  0.21001873     0.94600
C127        C  0.35318284  0.04263664  0.29212042     0.86700
C128        C  0.35728428  0.45805961  0.20872351     0.93000
C129        C  0.34417735  0.11156076  0.13145308     0.04500
C130        C  0.36813852  0.10944552  0.15287148     0.04500
C131        C  0.38999949  0.13305112  0.15445261     0.04500
C132        C  0.38879004  0.15755578  0.13381061     0.04500
C133        C  0.36607555  0.15834547  0.11119915     0.04500
C134        C  0.34351122  0.13558401  0.11032160     0.04500
O135        O  0.47206103  0.20955861  0.10635634    -0.70800
O136        O  0.02921404  0.27998380  0.09455725    -0.71700
O137        O  0.03805043  0.21716176  0.10778184    -0.60400
O138        O  0.46386480  0.27201746  0.09516560    -0.68800
O139        O  0.46505959  0.28268543  0.14431290    -0.73100
O140        O  0.03518457  0.22595059  0.15719470    -0.59600
O141        O  0.02968161  0.28849728  0.14409074    -0.72100
O142        O  0.46976252  0.21943346  0.15565335    -0.70900
Cu143      Cu  0.00206622  0.24380225  0.09865252     1.04600
Cu144      Cu  0.49950860  0.25410040  0.15179263     1.04300
C145        C  0.46186839  0.20368586  0.13264628     0.95400
C146        C  0.03816636  0.29542334  0.11728052     0.94600
C147        C  0.04759869  0.21268418  0.13478048     0.86700
C148        C  0.45343796  0.28624258  0.11811808     0.93000
C149        C  0.14774715  0.39909301  0.11724156     0.04500
C150        C  0.12532242  0.40293625  0.13984522     0.04500
C151        C  0.10283487  0.38047903  0.14432099     0.04500
C152        C  0.10195710  0.35460247  0.12538099     0.04500
C153        C  0.12356745  0.35139161  0.10177633     0.04500
C154        C  0.14702191  0.37309404  0.09835668     0.04500
O155        O  0.10509426  0.46301237  0.22343906    -0.70800
O156        O  0.11342009  0.02879010  0.28134081    -0.71700
O157        O  0.10638391  0.02548250  0.21689256    -0.60400
O158        O  0.11620566  0.46415106  0.28578830    -0.68800
O159        O  0.16554386  0.46655726  0.27589888    -0.68300
O160        O  0.15632496  0.03055232  0.21161429    -0.59600
O161        O  0.16320879  0.03369125  0.27514121    -0.72100
O162        O  0.15429076  0.46790502  0.21325624    -0.70900
Cu163      Cu  0.11116514  0.99519331  0.24995969     1.04600
Cu164      Cu  0.15948121  0.49980257  0.24530599     1.04300
C165        C  0.12879239  0.45478818  0.20906150     0.95400
C166        C  0.13851506  0.04208876  0.28759220     0.94600
C167        C  0.12923044  0.03681707  0.20333368     0.86700
C168        C  0.14324592  0.45446919  0.28988092     0.93000
C169        C  0.10444322  0.12165092  0.34927671     0.04500
C170        C  0.10369204  0.14523757  0.37095727     0.04500
C171        C  0.12061521  0.14267601  0.39831197     0.04500
C172        C  0.14077089  0.11797424  0.40201257     0.04500
C173        C  0.14232562  0.09501397  0.37977279     0.04500
C174        C  0.12328556  0.09613045  0.35404949     0.04500
O175        O  0.46603378  0.22468443  0.34660979    -0.70800
O176        O  0.03860443  0.27878294  0.36130758    -0.71700
O177        O  0.03280803  0.21485666  0.35664029    -0.60400
O178        O  0.47262683  0.28766011  0.35993703    -0.68800
O179        O  0.47569036  0.27779361  0.40905293    -0.68300
O180        O  0.02680916  0.20981379  0.40629454    -0.59600
O181        O  0.03799912  0.27240436  0.41114149    -0.72100
O182        O  0.46803578  0.21398196  0.39563598    -0.70900
Cu183      Cu  0.00359462  0.25082747  0.35536970     1.04600
Cu184      Cu  0.50370258  0.24229618  0.40220257     1.04300
C185        C  0.45661850  0.20958020  0.36934109     0.95400
C186        C  0.05024022  0.28345746  0.38726530     0.94600
C187        C  0.03839317  0.20097834  0.38154120     0.86700
C188        C  0.46536570  0.29379847  0.38730824     0.93000
O189        O  0.21469654  0.10799293  0.03195240    -0.70800
O190        O  0.27374572  0.09440149  0.46698196    -0.71700
O191        O  0.27791548  0.09592840  0.03221176    -0.60400
O192        O  0.21036534  0.10727625  0.46945294    -0.68800
O193        O  0.22014328  0.15656121  0.46815634    -0.68300
O194        O  0.28662332  0.14545143  0.03087569    -0.59600
O195        O  0.28340634  0.14375537  0.46562992    -0.72100
O196        O  0.22406163  0.15739337  0.03047517    -0.70900
Cu197      Cu  0.24325258  0.09959881  0.49997872     1.04600
Cu198      Cu  0.25564812  0.15180011  0.99828603     1.04300
C199        C  0.20984736  0.13481160  0.04161111     0.95400
C200        C  0.28847115  0.11683123  0.45627884     0.94600
C201        C  0.29201520  0.11929463  0.04191983     0.86700
C202        C  0.20469231  0.13374908  0.45924089     0.93000
O203        O  0.22835260  0.41098876  0.46692334    -0.70800
O204        O  0.28296140  0.39862433  0.03616278    -0.71700
O205        O  0.29260710  0.40330294  0.47325351    -0.60400
O206        O  0.21927980  0.40582784  0.02639044    -0.68800
O207        O  0.21413899  0.35577961  0.02584689    -0.68300
O208        O  0.28667898  0.35335583  0.47086847    -0.59600
O209        O  0.27739412  0.34862060  0.03451523    -0.72100
O210        O  0.22268540  0.36106413  0.46534215    -0.70900
Cu211      Cu  0.25593894  0.40453323  0.99995566     1.04600
Cu212      Cu  0.25048638  0.35098303  0.99820397     1.04300
C213        C  0.21605804  0.38734796  0.45544981     0.95400
C214        C  0.28863480  0.37227276  0.04668937     0.94600
C215        C  0.30121509  0.37745902  0.46387733     0.86700
C216        C  0.20505400  0.38199004  0.03429942     0.93000
C217        C  0.16129980  0.11583453  0.42881218    -0.14200
C218        C  0.18066990  0.13813091  0.43635156    -0.29400
H219        H  0.16284042  0.09422108  0.44039295     0.14800
H220        H  0.17979838  0.15961996  0.42445180     0.15400
C221        C  0.05815176  0.17437137  0.38310200    -0.14200
C222        C  0.08268751  0.17097974  0.36577565    -0.29400
H223        H  0.05430947  0.15854804  0.40154284     0.14800
H224        H  0.08726282  0.18665657  0.34741326     0.15400
C225        C  0.13947715  0.06806747  0.30853992    -0.14200
C226        C  0.12184034  0.06976165  0.33312553    -0.29400
H227        H  0.15606053  0.08577381  0.30429448     0.14800
H228        H  0.10633353  0.05140067  0.33845883     0.15400
C229        C  0.17212779  0.36717413  0.07656587    -0.14200
C230        C  0.17782795  0.38550581  0.05318184    -0.29400
H231        H  0.18679739  0.34785837  0.08059799     0.14800
H232        H  0.16351191  0.40512156  0.04931477     0.15400
C233        C  0.12576244  0.43059973  0.15918705    -0.14200
C234        C  0.12707028  0.42832599  0.18933842    -0.29400
H235        H  0.12735443  0.45271975  0.14855203     0.14800
H236        H  0.12694477  0.40624840  0.20010027     0.15400
C237        C  0.05826887  0.32152570  0.11185778    -0.14200
C238        C  0.07963916  0.32998425  0.13173954    -0.29400
H239        H  0.05629570  0.33314511  0.09034834     0.14800
H240        H  0.08137914  0.31812424  0.15315029     0.15400
C241        C  0.31905058  0.13746993  0.08703438    -0.14200
C242        C  0.31487177  0.11592575  0.06596056    -0.29400
H243        H  0.30540497  0.15792569  0.08616452     0.14800
H244        H  0.32844326  0.09547902  0.06627384     0.15400
C245        C  0.41075763  0.18307818  0.13615825    -0.14200
C246        C  0.44079736  0.17836650  0.13590668    -0.29400
H247        H  0.40215712  0.20611060  0.13486501     0.14800
H248        H  0.44977374  0.15557026  0.13386065     0.15400
C249        C  0.34832811  0.07193611  0.19042093    -0.14200
C250        C  0.37109397  0.08235612  0.17313505    -0.29400
H251        H  0.32674333  0.08372006  0.19069379     0.14800
H252        H  0.39260289  0.07052181  0.17375073     0.15400
C253        C  0.32826733  0.37046158  0.41626601    -0.14200
C254        C  0.32903794  0.37600841  0.44594612    -0.29400
H255        H  0.30668035  0.36595199  0.40522341     0.14800
H256        H  0.34999570  0.38378120  0.45635700     0.15400
C257        C  0.42623117  0.33152032  0.37359005    -0.14200
C258        C  0.44518980  0.31972866  0.39431774    -0.29400
H259        H  0.42672236  0.32229992  0.35077940     0.14800
H260        H  0.44634431  0.32918750  0.41687988     0.15400
C261        C  0.36220751  0.43163283  0.31189861    -0.14200
C262        C  0.38239257  0.42842736  0.33439494    -0.29400
H263        H  0.34449192  0.41477336  0.30902443     0.14800
H264        H  0.40095596  0.44446542  0.33671478     0.15400
C265        C  0.38846913  0.18998552  0.06986356    -0.14200
C266        C  0.36502475  0.18300526  0.08814239    -0.29400
H267        H  0.41048574  0.17944551  0.07312105     0.14800
H268        H  0.34330178  0.19395484  0.08433420     0.15400
C269        C  0.38413230  0.33496634  0.42619076    -0.14200
C270        C  0.36339131  0.31391992  0.43323026    -0.29400
H271        H  0.40395042  0.33747196  0.44048387     0.14800
H272        H  0.34294819  0.31150451  0.41970815     0.15400
C273        C  0.11572479  0.19366121  0.42301711    -0.14200
C274        C  0.11565681  0.16334662  0.42475284    -0.29400
H275        H  0.11914607  0.20494652  0.40149270     0.14800
H276        H  0.11430715  0.15303662  0.44704643     0.15400
C277        C  0.13844652  0.30532213  0.07256518    -0.14200
C278        C  0.11890461  0.32793772  0.07797523    -0.29400
H279        H  0.15873126  0.30300368  0.08631784     0.14800
H280        H  0.09931501  0.33052607  0.06334723     0.15400
C281        C  0.18857877  0.06704588  0.36537052    -0.14200
C282        C  0.16451496  0.06997787  0.38372103    -0.29400
H283        H  0.19094217  0.08167964  0.34580707     0.14800
H284        H  0.16224226  0.05532222  0.40331494     0.15400
C285        C  0.31675727  0.43476068  0.39625135    -0.14200
C286        C  0.32860963  0.41940041  0.37271464    -0.29400
H287        H  0.32637647  0.43225755  0.41870077     0.14800
H288        H  0.31838512  0.42256347  0.35071496     0.15400
C289        C  0.18445157  0.36669898  0.41421987    -0.14200
C290        C  0.19306858  0.39041607  0.43141303    -0.29400
H291        H  0.19523841  0.34487544  0.41766370     0.14800
H292        H  0.18182385  0.41210454  0.42909836     0.15400
C293        C  0.07890419  0.30059932  0.38887515    -0.14200
C294        C  0.07985521  0.32997328  0.38105072    -0.29400
H295        H  0.09946389  0.28798504  0.39348855     0.14800
H296        H  0.05838717  0.34062197  0.37521380     0.15400
C297        C  0.12732560  0.41804738  0.32901453    -0.14200
C298        C  0.14890069  0.42852459  0.31020987    -0.29400
H299        H  0.10548090  0.42925595  0.32897860     0.14800
H300        H  0.17096391  0.41766266  0.30922501     0.15400
C301        C  0.13601344  0.32454162  0.42132224    -0.14200
C302        C  0.11499932  0.32150538  0.44305719    -0.29400
H303        H  0.15534119  0.30928307  0.42092379     0.14800
H304        H  0.09535534  0.33636501  0.44319976     0.15400
C305        C  0.18269705  0.41200989  0.36676646    -0.14200
C306        C  0.17990870  0.44078939  0.37581556    -0.29400
H307        H  0.20482379  0.40324656  0.36033466     0.14800
H308        H  0.15848409  0.44842290  0.38531919     0.15400
C309        C  0.07462115  0.36928812  0.19148536    -0.14200
C310        C  0.07820692  0.38631194  0.16667401    -0.29400
H311        H  0.08863617  0.34935565  0.19477539     0.14800
H312        H  0.06433812  0.40642582  0.16367706     0.15400
C313        C  0.43205200  0.38385687  0.33685980    -0.14200
C314        C  0.42937009  0.38574621  0.30679001    -0.29400
H315        H  0.45444046  0.38004253  0.34652101     0.14800
H316        H  0.40729930  0.38786474  0.29612428     0.15400
C317        C  0.06246974  0.38678462  0.32434288    -0.14200
C318        C  0.08496227  0.36688348  0.32856905    -0.29400
H319        H  0.06067437  0.40637596  0.33909920     0.14800
H320        H  0.08673687  0.34719486  0.31391309     0.15400
C321        C  0.33610361  0.38148745  0.07319493    -0.14200
C322        C  0.30852399  0.36888105  0.07301409    -0.29400
H323        H  0.34391016  0.39441670  0.05378560     0.14800
H324        H  0.30148059  0.35426005  0.09147491     0.15400
C325        C  0.43049310  0.33661139  0.11926617    -0.14200
C326        C  0.42742957  0.30667203  0.11470233    -0.29400
H327        H  0.45290421  0.34539216  0.12469305     0.14800
H328        H  0.40540422  0.29667511  0.11014640     0.15400
C329        C  0.37899346  0.42623425  0.16777541    -0.14200
C330        C  0.35670316  0.43196121  0.18776393    -0.29400
H331        H  0.39873159  0.44097007  0.16740834     0.14800
H332        H  0.33740593  0.41683454  0.18931363     0.15400
C333        C  0.36271657  0.31677717  0.06403795    -0.14200
C334        C  0.38449266  0.33682897  0.07139021    -0.29400
H335        H  0.34142273  0.31661447  0.07635497     0.14800
H336        H  0.40629426  0.33598861  0.05992267     0.15400
C337        C  0.43775475  0.36002519  0.18349489    -0.14200
C338        C  0.42794386  0.38313262  0.16626060    -0.29400
H339        H  0.42760492  0.33771985  0.18118178     0.14800
H340        H  0.43762253  0.40550042  0.16955499     0.15400
C341        C  0.18960367  0.43215567  0.13560503    -0.14200
C342        C  0.17162976  0.42272682  0.11292151    -0.29400
H343        H  0.18774833  0.42159152  0.15771783     0.14800
H344        H  0.17383779  0.43321580  0.09089543     0.15400
C345        C  0.31884551  0.06370837  0.11810160    -0.14200
C346        C  0.31830856  0.09016116  0.13272623    -0.29400
H347        H  0.33772754  0.05807198  0.10334092     0.14800
H348        H  0.29875153  0.09624619  0.14642311     0.15400
C349        C  0.31940473  0.43925891  0.10759027    -0.14200
C350        C  0.32691496  0.41760490  0.12732358    -0.29400
H351        H  0.33233544  0.44232060  0.08690000     0.14800
H352        H  0.31269468  0.41415141  0.14701346     0.15400
C353        C  0.32407652  0.13289159  0.41642548    -0.14200
C354        C  0.31234594  0.11098536  0.43386795    -0.29400
H355        H  0.31599183  0.15600169  0.41893495     0.14800
H356        H  0.32138773  0.08819666  0.43273124     0.15400
C357        C  0.42851339  0.16277887  0.38265858    -0.14200
C358        C  0.43234276  0.18697837  0.36459421    -0.29400
H359        H  0.44335117  0.15940249  0.40198680     0.14800
H360        H  0.41693999  0.19049007  0.34575171     0.15400
C361        C  0.35228476  0.06788181  0.31387293    -0.14200
C362        C  0.37590845  0.07490844  0.33186315    -0.29400
H363        H  0.33156066  0.08108311  0.31475583     0.14800
H364        H  0.39674168  0.06196617  0.32962551     0.15400
C365        C  0.37832385  0.16549560  0.42758638    -0.14200
C366        C  0.38808750  0.19419842  0.42805718    -0.29400
H367        H  0.36878592  0.15638378  0.44837434     0.14800
H368        H  0.39676704  0.20511930  0.40799955     0.15400
C369        C  0.32288061  0.08501614  0.37153312    -0.14200
C370        C  0.32374309  0.05644808  0.38141216    -0.29400
H371        H  0.30183781  0.09453184  0.36293704     0.14800
H372        H  0.34415211  0.04768275  0.39205741     0.15400
C373        C  0.18836974  0.13974905  0.06650571    -0.14200
C374        C  0.16734758  0.11899590  0.07373921    -0.29400
H375        H  0.19063865  0.16033891  0.07970015     0.14800
H376        H  0.16596612  0.09811303  0.06081153     0.15400
C377        C  0.07839088  0.16863805  0.12170352    -0.14200
C378        C  0.07301678  0.19184750  0.14041380    -0.29400
H379        H  0.06425205  0.16567841  0.10178384     0.14800
H380        H  0.08697006  0.19517342  0.16039930     0.15400
C381        C  0.13328874  0.08482255  0.17627969    -0.14200
C382        C  0.12400162  0.05606125  0.17693292    -0.29400
H383        H  0.14440105  0.09475036  0.19587561     0.14800
H384        H  0.11119315  0.04680076  0.15805404     0.15400
C385        C  0.12936731  0.17263541  0.08070967    -0.14200
C386        C  0.11081087  0.17732656  0.05717703    -0.29400
H387        H  0.14807744  0.18817641  0.08456876     0.14800
H388        H  0.09102631  0.16304683  0.05378678     0.15400
C389        C  0.16823552  0.07373066  0.11992394    -0.14200
C390        C  0.18877924  0.06548070  0.14074725    -0.29400
H391        H  0.16755495  0.06158145  0.09855988     0.14800
H392        H  0.19044746  0.07774334  0.16197136     0.15400
C393        C  0.43476122  0.11442208  0.18230985    -0.14200
C394        C  0.41214971  0.13443073  0.17984249    -0.29400
H395        H  0.43636886  0.09572339  0.16642767     0.14800
H396        H  0.41105285  0.15354140  0.19531674     0.15400
C397        C  0.08392876  0.12358473  0.32246762    -0.14200
C398        C  0.06282515  0.10240325  0.31681297    -0.29400
H399        H  0.08438927  0.14409455  0.30893179     0.14800
H400        H  0.06163981  0.08229617  0.33086048     0.15400
C401        C  0.42751381  0.11405951  0.33699865    -0.14200
C402        C  0.43334195  0.13199661  0.31327931    -0.29400
H403        H  0.44064565  0.09350993  0.34022355     0.14800
H404        H  0.41994995  0.15232477  0.30996067     0.15400
C405        C  0.08293462  0.12800449  0.17437947    -0.14200
C406        C  0.06636436  0.10387107  0.18299930    -0.29400
H407        H  0.07906783  0.14962117  0.18534322     0.14800
H408        H  0.06925499  0.08235135  0.17153891     0.15400
O409        O  0.46751754  0.09016153  0.72138985    -0.70800
O410        O  0.02624644  0.08842997  0.78433209    -0.71700
O411        O  0.46830477  0.10114489  0.78549247    -0.60400
O412        O  0.03126839  0.08543074  0.71978710    -0.68800
O413        O  0.03549630  0.13543923  0.71741956    -0.68300
O414        O  0.46980480  0.15067519  0.77708444    -0.59600
O415        O  0.03221021  0.13831127  0.78176746    -0.72100
O416        O  0.46801638  0.13987033  0.71380311    -0.70900
Cu417      Cu  0.99688493  0.08805391  0.75050793     1.04600
Cu418      Cu  0.50114459  0.14606590  0.74462505     1.04300
C419        C  0.45793649  0.11346392  0.70734546     0.95400
C420        C  0.03801473  0.11276124  0.79427205     0.94600
C421        C  0.45930208  0.12803924  0.79158577     0.86700
C422        C  0.04401966  0.10918810  0.70899596     0.93000
C423        C  0.14740734  0.10062936  0.62379597     0.04500
C424        C  0.12929130  0.10388876  0.64999702     0.04500
C425        C  0.10805643  0.12786669  0.65226944     0.04500
C426        C  0.10772352  0.15085717  0.62963329     0.04500
C427        C  0.12741094  0.14849331  0.60435826     0.04500
C428        C  0.14630375  0.12292816  0.60108003     0.04500
C429        C  0.40504869  0.11841709  0.85884613     0.04500
C430        C  0.37897823  0.09979941  0.85513264     0.04500
C431        C  0.35366662  0.10409044  0.87469281     0.04500
C432        C  0.35529273  0.12541339  0.89853202     0.04500
C433        C  0.38190018  0.14249119  0.90317137     0.04500
C434        C  0.40627417  0.14029090  0.88246172     0.04500
O435        O  0.22602583  0.46372836  0.65501009    -0.70800
O436        O  0.28889270  0.03053670  0.64417387    -0.71700
O437        O  0.22598357  0.03159611  0.65652110    -0.60400
O438        O  0.28847880  0.46697729  0.64280515    -0.68800
O439        O  0.27649431  0.46529057  0.59394891    -0.68300
O440        O  0.21740372  0.03313417  0.60703437    -0.59600
O441        O  0.28128183  0.02847267  0.59451016    -0.72100
O442        O  0.21399727  0.46680578  0.60631256    -0.70900
Cu443      Cu  0.25706207  0.99891306  0.65195566     1.04600
Cu444      Cu  0.24550102  0.49841719  0.59877752     1.04300
C445        C  0.21091293  0.45430340  0.63214089     0.95400
C446        C  0.29577287  0.03877083  0.61732884     0.94600
C447        C  0.21221144  0.04290628  0.63382333     0.86700
C448        C  0.29193254  0.45575614  0.61647856     0.93000
C449        C  0.36215454  0.40530144  0.61999214     0.04500
C450        C  0.36203310  0.38275998  0.59728916     0.04500
C451        C  0.38122973  0.35730532  0.59966909     0.04500
C452        C  0.39988939  0.35358585  0.62558028     0.04500
C453        C  0.40053305  0.37648124  0.64833516     0.04500
C454        C  0.38151028  0.40231668  0.64545291     0.04500
O455        O  0.03379189  0.35201999  0.78370446    -0.70800
O456        O  0.48201958  0.34363067  0.71365862    -0.71700
O457        O  0.03848293  0.35788035  0.71971666    -0.60400
O458        O  0.47271575  0.34304186  0.77738400    -0.68800
O459        O  0.46539507  0.39277205  0.77892764    -0.68300
O460        O  0.03890504  0.40764184  0.72723158    -0.59600
O461        O  0.47149203  0.39279758  0.71510641    -0.72100
O462        O  0.02865762  0.40156764  0.79065516    -0.70900
Cu463      Cu  0.50908626  0.34697521  0.75053326     1.04600
Cu464      Cu  0.00189429  0.40535485  0.75460179     1.04300
C465        C  0.04016756  0.37631805  0.79833692     0.95400
C466        C  0.46822688  0.36675607  0.70301743     0.94600
C467        C  0.04967404  0.38390763  0.71447518     0.86700
C468        C  0.45788469  0.36595521  0.78685230     0.93000
C469        C  0.11189151  0.34465974  0.86969440     0.04500
C470        C  0.11189499  0.36681233  0.84642271     0.04500
C471        C  0.13481558  0.38933715  0.84546057     0.04500
C472        C  0.15894978  0.38814604  0.86670998     0.04500
C473        C  0.16013783  0.36471030  0.88864144     0.04500
C474        C  0.13645718  0.34306404  0.89026258     0.04500
O475        O  0.22404196  0.03285325  0.84507756    -0.70800
O476        O  0.28315544  0.46239350  0.86277811    -0.71700
O477        O  0.21951721  0.46689821  0.85488408    -0.60400
O478        O  0.28825041  0.02660511  0.85000287    -0.68800
O479        O  0.28412360  0.03395160  0.89963886    -0.68300
O480        O  0.21300575  0.47088261  0.90460989    -0.59600
O481        O  0.27744701  0.46534276  0.91260476    -0.72100
O482        O  0.21955910  0.03825710  0.89488813    -0.70900
Cu483      Cu  0.25420314  0.49644767  0.85525353     1.04600
Cu484      Cu  0.24935865  0.00504193  0.90297633     1.04300
C485        C  0.21229491  0.04596713  0.86800582     0.95400
C486        C  0.29009106  0.45351861  0.88940200     0.94600
C487        C  0.20534258  0.45978729  0.87907013     0.86700
C488        C  0.29777068  0.03844195  0.87459100     0.93000
O489        O  0.10985320  0.28893908  0.97152274    -0.70800
O490        O  0.08678520  0.21055429  0.52472949    -0.71700
O491        O  0.08870022  0.27353836  0.53640865    -0.60400
O492        O  0.09737393  0.22677236  0.96223336    -0.68800
O493        O  0.14648367  0.21553170  0.96452064    -0.68300
O494        O  0.13912105  0.27501819  0.53526868    -0.59600
O495        O  0.13701530  0.21139312  0.52871604    -0.72100
O496        O  0.15921940  0.27867208  0.97147190    -0.70900
Cu497      Cu  0.08684025  0.24773301  0.49871284     1.04600
Cu498      Cu  0.15341042  0.24320397  0.00001383     1.04300
C499        C  0.13679066  0.29482271  0.96270404     0.95400
C500        C  0.11124383  0.20010604  0.53606667     0.94600
C501        C  0.11398469  0.28260668  0.54737300     0.86700
C502        C  0.12048906  0.21260668  0.95205728     0.93000
O503        O  0.39633769  0.28618020  0.53381859    -0.70800
O504        O  0.40710550  0.22451612  0.96779287    -0.71700
O505        O  0.39311130  0.28601109  0.96659144    -0.60400
O506        O  0.40927893  0.22299338  0.52995563    -0.68800
O507        O  0.35958380  0.21472412  0.53191375    -0.68300
O508        O  0.34409497  0.27421773  0.96660655    -0.59600
O509        O  0.35810425  0.21250756  0.96948591    -0.72100
O510        O  0.34679022  0.27688238  0.53389815    -0.70900
Cu511      Cu  0.40216758  0.25614357  0.99967160     1.04600
Cu512      Cu  0.35098375  0.24595035  0.50063485     1.04300
C513        C  0.36981675  0.29082934  0.54462137     0.95400
C514        C  0.38448871  0.20955104  0.95780542     0.94600
C515        C  0.36641490  0.28885447  0.95553088     0.86700
C516        C  0.38647067  0.20883936  0.54089080     0.93000
C517        C  0.35000235  0.39253689  0.87159052     0.04500
C518        C  0.37415093  0.39662703  0.85075696     0.04500
C519        C  0.39832476  0.37566442  0.84973444     0.04500
C520        C  0.39909030  0.35116292  0.87034042     0.04500
C521        C  0.37697433  0.34916144  0.89352901     0.04500
C522        C  0.35167600  0.36909712  0.89335370     0.04500
O523        O  0.38102721  0.46625454  0.78088816    -0.70800
O524        O  0.38057893  0.03475679  0.71677632    -0.71700
O525        O  0.38172155  0.03365250  0.78101893    -0.60400
O526        O  0.38243689  0.47072240  0.71691457    -0.68800
O527        O  0.33205487  0.47109487  0.71556584    -0.68300
O528        O  0.33133942  0.03285555  0.78122094    -0.59600
O529        O  0.33017947  0.03399688  0.71804308    -0.72100
O530        O  0.33066461  0.46504705  0.77856501    -0.70900
Cu531      Cu  0.38358282  0.00176362  0.74848400     1.04600
Cu532      Cu  0.32927107  0.50030680  0.75024572     1.04300
C533        C  0.35565049  0.45444056  0.78853771     0.95400
C534        C  0.35488400  0.04526688  0.70819616     0.94600
C535        C  0.35642859  0.04383073  0.79084754     0.86700
C536        C  0.35742279  0.46093954  0.70595220     0.93000
C537        C  0.34898573  0.10678228  0.62567797     0.04500
C538        C  0.37285298  0.10469199  0.64714736     0.04500
C539        C  0.39450326  0.12841583  0.64936529     0.04500
C540        C  0.39350359  0.15282063  0.62874355     0.04500
C541        C  0.37094258  0.15377646  0.60605026     0.04500
C542        C  0.34818457  0.13121911  0.60499658     0.04500
O543        O  0.47782346  0.21416594  0.59926248    -0.70800
O544        O  0.03704822  0.27985176  0.60767807    -0.71700
O545        O  0.03709623  0.21542256  0.60896346    -0.60400
O546        O  0.47415720  0.27862992  0.59500782    -0.68800
O547        O  0.46341728  0.28172337  0.64401434    -0.73100
O548        O  0.02374665  0.21415496  0.65746330    -0.59600
O549        O  0.02769210  0.27897488  0.65703729    -0.72100
O550        O  0.46602591  0.21753496  0.64801423    -0.70900
Cu551      Cu  0.00645477  0.24727098  0.59937542     1.04600
Cu552      Cu  0.49582112  0.25158734  0.65466287     1.04300
C553        C  0.46266194  0.20505368  0.62210158     0.95400
C554        C  0.04205797  0.28978411  0.63440174     0.94600
C555        C  0.03924297  0.20388249  0.63532870     0.86700
C556        C  0.45898279  0.29019781  0.61672769     0.93000
C557        C  0.14475825  0.39878205  0.62009454     0.04500
C558        C  0.12092542  0.40020420  0.64160198     0.04500
C559        C  0.09792672  0.37774050  0.64199638     0.04500
C560        C  0.09808672  0.35467908  0.61952782     0.04500
C561        C  0.12198866  0.35324158  0.59793462     0.04500
C562        C  0.14578821  0.37473737  0.59884176     0.04500
O563        O  0.11355960  0.46285786  0.71844913    -0.70800
O564        O  0.11302871  0.03024176  0.78210293    -0.71700
O565        O  0.10489234  0.02568007  0.71787971    -0.60400
O566        O  0.12128760  0.46341165  0.78199258    -0.68800
O567        O  0.17105626  0.46826679  0.77591497    -0.68300
O568        O  0.15477802  0.03057563  0.71192472    -0.59600
O569        O  0.16276420  0.03457968  0.77520536    -0.72100
O570        O  0.16347810  0.46803667  0.71311246    -0.70900
Cu571      Cu  0.11007656  0.99602150  0.75151502     1.04600
Cu572      Cu  0.16566536  0.50067262  0.74409198     1.04300
C573        C  0.13861227  0.45507372  0.70609421     0.95400
C574        C  0.13834442  0.04328850  0.78798542     0.94600
C575        C  0.12761367  0.03683859  0.70394749     0.86700
C576        C  0.14832992  0.45495097  0.78807730     0.93000
C577        C  0.10176578  0.12393391  0.85206870     0.04500
C578        C  0.10036858  0.14461062  0.87669409     0.04500
C579        C  0.12155838  0.14200639  0.90090149     0.04500
C580        C  0.14306573  0.11809021  0.90069365     0.04500
C581        C  0.14273169  0.09644766  0.87717038     0.04500
C582        C  0.12194594  0.09911151  0.85299765     0.04500
O583        O  0.46636339  0.22144397  0.84550272    -0.70800
O584        O  0.02880456  0.27998892  0.83837839    -0.71700
O585        O  0.02606047  0.21696800  0.83964017    -0.60400
O586        O  0.47123932  0.28544277  0.85041234    -0.68800
O587        O  0.47738255  0.28168934  0.90012445    -0.68300
O588        O  0.03435521  0.21609696  0.88921270    -0.59600
O589        O  0.03946329  0.27982650  0.88750041    -0.72100
O590        O  0.47156480  0.21639566  0.89520287    -0.70900
Cu591      Cu  0.99524025  0.25026160  0.84354865     1.04600
Cu592      Cu  0.50642592  0.24712085  0.89582148     1.04300
C593        C  0.45851647  0.20905904  0.87028439     0.95400
C594        C  0.04517661  0.28866971  0.86050465     0.94600
C595        C  0.04023578  0.20653520  0.86258789     0.86700
C596        C  0.46539276  0.29463144  0.87731612     0.93000
O597        O  0.21377228  0.10816396  0.53308011    -0.70800
O598        O  0.27718833  0.09303871  0.96841035    -0.71700
O599        O  0.27679487  0.09534648  0.53041609    -0.60400
O600        O  0.21385001  0.10581048  0.96791537    -0.68800
O601        O  0.22372041  0.15505780  0.96600806    -0.68300
O602        O  0.28612831  0.14477953  0.52988900    -0.59600
O603        O  0.28688610  0.14234834  0.96645142    -0.72100
O604        O  0.22362276  0.15751153  0.53237366    -0.70900
Cu605      Cu  0.24552742  0.09898182  0.00013430     1.04600
Cu606      Cu  0.25364253  0.15240724  0.49890070     1.04300
C607        C  0.20940635  0.13486817  0.54328461     0.95400
C608        C  0.29211679  0.11525469  0.95759954     0.94600
C609        C  0.29180316  0.11821575  0.53984557     0.86700
C610        C  0.20868985  0.13208182  0.95687940     0.93000
O611        O  0.22828757  0.40634771  0.96388200    -0.70800
O612        O  0.28773119  0.40055844  0.53579728    -0.71700
O613        O  0.29224207  0.40045707  0.97323549    -0.60400
O614        O  0.22341166  0.41026646  0.53046631    -0.68800
O615        O  0.21616143  0.36052125  0.52945614    -0.68300
O616        O  0.28725060  0.35046479  0.97045609    -0.59600
O617        O  0.27990607  0.35087051  0.53415470    -0.72100
O618        O  0.22349769  0.35628275  0.96237941    -0.70900
Cu619      Cu  0.25816823  0.40803048  0.50167616     1.04600
Cu620      Cu  0.25104150  0.35470232  0.49985466     1.04300
C621        C  0.21667427  0.38246601  0.95232853     0.95400
C622        C  0.29375692  0.37373623  0.54498542     0.94600
C623        C  0.30125321  0.37487240  0.96339528     0.86700
C624        C  0.20869412  0.38693204  0.53892690     0.93000
C625        C  0.16570878  0.11438442  0.92560217    -0.14200
C626        C  0.18530832  0.13638036  0.93332983    -0.29400
H627        H  0.16755525  0.09231820  0.93627390     0.14800
H628        H  0.18410222  0.15821312  0.92209344     0.15400
C629        C  0.06468362  0.18443006  0.85788308    -0.14200
C630        C  0.07408944  0.16573517  0.87991905    -0.29400
H631        H  0.07605988  0.18492249  0.83619891     0.14800
H632        H  0.06310190  0.16690391  0.90190901     0.15400
C633        C  0.14015927  0.06882820  0.80945048    -0.14200
C634        C  0.11884087  0.07425869  0.83034738    -0.29400
H635        H  0.16017444  0.08311087  0.80857507     0.14800
H636        H  0.09852279  0.06034605  0.83106802     0.15400
C637        C  0.17254658  0.37021350  0.57842111    -0.14200
C638        C  0.18256129  0.39151320  0.55927663    -0.29400
H639        H  0.18300512  0.34793905  0.57798669     0.14800
H640        H  0.17155756  0.41343947  0.55858997     0.15400
C641        C  0.11897282  0.42646076  0.66253810    -0.14200
C642        C  0.13967245  0.43013648  0.68438258    -0.29400
H643        H  0.09950287  0.44148318  0.66116165     0.14800
H644        H  0.15832428  0.41428997  0.68640858     0.15400
C645        C  0.06463874  0.31393587  0.63927433    -0.14200
C646        C  0.07235851  0.33300015  0.61688626    -0.29400
H647        H  0.07521759  0.31597709  0.66138650     0.14800
H648        H  0.06167372  0.33060438  0.59484381     0.15400
C649        C  0.32269823  0.13466091  0.58306696    -0.14200
C650        C  0.31610117  0.11361874  0.56218258    -0.29400
H651        H  0.31012963  0.15581170  0.58313719     0.14800
H652        H  0.32868320  0.09257293  0.56140950     0.15400
C653        C  0.41474401  0.17867176  0.63272773    -0.14200
C654        C  0.44143131  0.17963028  0.61823987    -0.29400
H655        H  0.40841946  0.19665765  0.64827978     0.14800
H656        H  0.44720804  0.16195314  0.60213442     0.15400
C657        C  0.35303010  0.07144265  0.68773325    -0.14200
C658        C  0.37484350  0.07804509  0.66772346    -0.29400
H659        H  0.33291996  0.08557364  0.68909119     0.14800
H660        H  0.39440649  0.06329038  0.66602766     0.15400
C661        C  0.32610177  0.36497520  0.91491472    -0.14200
C662        C  0.32814581  0.37410914  0.94374118    -0.29400
H663        H  0.30451250  0.35693279  0.90611465     0.14800
H664        H  0.34882320  0.38500000  0.95159552     0.15400
C665        C  0.42066920  0.32565624  0.86522402    -0.14200
C666        C  0.44499992  0.32063107  0.88265091    -0.29400
H667        H  0.41585462  0.31024120  0.84668739     0.14800
H668        H  0.44930195  0.33509582  0.90207238     0.15400
C669        C  0.35471789  0.42787424  0.80849260    -0.14200
C670        C  0.37517718  0.42352632  0.83047712    -0.29400
H671        H  0.33634550  0.41179477  0.80532779     0.14800
H672        H  0.39393027  0.43931262  0.83305284     0.15400
C673        C  0.39100028  0.18540763  0.56406780    -0.14200
C674        C  0.36923262  0.17954341  0.58451577    -0.29400
H675        H  0.41191774  0.17251521  0.56387365     0.14800
H676        H  0.34832958  0.19256471  0.58399545     0.15400
C677        C  0.38212740  0.32771503  0.91897909    -0.14200
C678        C  0.36089365  0.30866237  0.92938039    -0.29400
H679        H  0.40431918  0.32789687  0.92960515     0.14800
H680        H  0.33885083  0.30742855  0.91846956     0.15400
C681        C  0.11737549  0.19304174  0.92535449    -0.14200
C682        C  0.12088376  0.16292704  0.92760400    -0.29400
H683        H  0.11331275  0.20374054  0.90365700     0.14800
H684        H  0.12571827  0.15348508  0.94979452     0.15400
C685        C  0.11429576  0.30201979  0.57428087    -0.14200
C686        C  0.12123886  0.33150018  0.57187725    -0.29400
H687        H  0.10889927  0.29189204  0.59595103     0.14800
H688        H  0.12762696  0.34013902  0.54973140     0.15400
C689        C  0.19004285  0.07017538  0.86341116    -0.14200
C690        C  0.16389213  0.07042363  0.87887926    -0.29400
H691        H  0.19505944  0.08784764  0.84711710     0.14800
H692        H  0.15911319  0.05270207  0.89524142     0.15400
C693        C  0.31397905  0.43044070  0.89340540    -0.14200
C694        C  0.32309647  0.41300332  0.87019379    -0.29400
H695        H  0.32539222  0.42910452  0.91510991     0.14800
H696        H  0.31119723  0.41484191  0.84884756     0.15400
C697        C  0.18617355  0.36245051  0.91001377    -0.14200
C698        C  0.19388663  0.38549065  0.92834840    -0.29400
H699        H  0.19722308  0.34061904  0.91260013     0.14800
H700        H  0.18173724  0.40675468  0.92723127     0.15400
C701        C  0.07132675  0.30832000  0.85399317    -0.14200
C702        C  0.08490514  0.32496894  0.87541493    -0.29400
H703        H  0.07966184  0.30870201  0.83090781     0.14800
H704        H  0.07692122  0.32320623  0.89861981     0.15400
C705        C  0.13093740  0.41556738  0.82411071    -0.14200
C706        C  0.15359546  0.42892170  0.80847659    -0.29400
H707        H  0.10797299  0.42392636  0.82093450     0.14800
H708        H  0.17650177  0.42006955  0.80962325     0.15400
C709        C  0.13735434  0.31718319  0.91218296    -0.14200
C710        C  0.14163102  0.32052623  0.94209738    -0.29400
H711        H  0.13113313  0.29489669  0.90369611     0.14800
H712        H  0.14571173  0.34272765  0.95182497     0.15400
C713        C  0.18362704  0.41087640  0.86572503    -0.14200
C714        C  0.17994578  0.43846003  0.87772348    -0.29400
H715        H  0.20550827  0.40415207  0.85656388     0.14800
H716        H  0.15894104  0.44413846  0.88929796     0.15400
C717        C  0.07544810  0.38599014  0.69362915    -0.14200
C718        C  0.07206986  0.37944670  0.66404337    -0.29400
H719        H  0.09755999  0.39042291  0.70334378     0.14800
H720        H  0.04951671  0.37350529  0.65599782     0.15400
C721        C  0.42382173  0.38101883  0.82821589    -0.14200
C722        C  0.43186209  0.36085534  0.80700823    -0.29400
H723        H  0.43572922  0.40253155  0.82955242     0.14800
H724        H  0.41977557  0.33956157  0.80496411     0.15400
C725        C  0.06114014  0.37593925  0.82426488    -0.14200
C726        C  0.08939054  0.36522453  0.82140469    -0.29400
H727        H  0.05455446  0.38747542  0.84496973     0.14800
H728        H  0.09686197  0.35605571  0.79982767     0.15400
C729        C  0.34151239  0.38620778  0.57090175    -0.14200
C730        C  0.31697679  0.36846504  0.56813093    -0.29400
H731        H  0.34432082  0.40577289  0.55628559     0.14800
H732        H  0.31383589  0.34945143  0.58334963     0.15400
C733        C  0.41719483  0.32496272  0.63018104    -0.14200
C734        C  0.43760149  0.31483420  0.60997810    -0.29400
H735        H  0.41558788  0.31405493  0.65214729     0.14800
H736        H  0.44063274  0.32649571  0.58862617     0.15400
C737        C  0.38246627  0.42660804  0.66912598    -0.14200
C738        C  0.35716176  0.43712608  0.68255415    -0.29400
H739        H  0.40450340  0.43501705  0.67631539     0.14800
H740        H  0.33526262  0.42758832  0.67647142     0.15400
C741        C  0.36571068  0.31202317  0.57010689    -0.14200
C742        C  0.38382992  0.33617177  0.57358689    -0.29400
H743        H  0.34742682  0.30792433  0.58605464     0.14800
H744        H  0.40120166  0.34093877  0.55681160     0.15400
C745        C  0.44903259  0.36385981  0.67595454    -0.14200
C746        C  0.42024091  0.37403977  0.67598803    -0.29400
H747        H  0.45959348  0.35520268  0.65558560     0.14800
H748        H  0.41143508  0.38317212  0.69708683     0.15400
C749        C  0.19054083  0.42803721  0.63525269    -0.14200
C750        C  0.16616250  0.42467624  0.61736793    -0.29400
H751        H  0.19571661  0.41120185  0.65233885     0.14800
H752        H  0.16076767  0.44203051  0.60083972     0.15400
C753        C  0.32112379  0.05986041  0.61261228    -0.14200
C754        C  0.32262468  0.08594094  0.62796270    -0.29400
H755        H  0.33856792  0.05405945  0.59625071     0.14800
H756        H  0.30445413  0.09200908  0.64344208     0.15400
C757        C  0.31230203  0.43002817  0.61288351    -0.14200
C758        C  0.34233728  0.43255749  0.61709953    -0.29400
H759        H  0.30172853  0.40804355  0.61028112     0.14800
H760        H  0.35196011  0.45472030  0.62190416     0.15400
C761        C  0.32890378  0.13107273  0.91888096    -0.14200
C762        C  0.31599206  0.10901797  0.93522834    -0.29400
H763        H  0.32202837  0.15443092  0.92248159     0.14800
H764        H  0.32363282  0.08578502  0.93270106     0.15400
C765        C  0.43270410  0.16118755  0.88551862    -0.14200
C766        C  0.43370423  0.18664450  0.86895872    -0.29400
H767        H  0.45012541  0.15646191  0.90223320     0.14800
H768        H  0.41603471  0.19052663  0.85225272     0.15400
C769        C  0.35577143  0.06900496  0.81292357    -0.14200
C770        C  0.37937707  0.07547491  0.83123450    -0.29400
H771        H  0.33504885  0.08217270  0.81428917     0.14800
H772        H  0.40012249  0.06246360  0.82862094     0.15400
C773        C  0.38401047  0.16098763  0.93132267    -0.14200
C774        C  0.38841246  0.19084651  0.93077552    -0.29400
H775        H  0.37787562  0.15032663  0.95263454     0.14800
H776        H  0.39281418  0.20246857  0.90967248     0.15400
C777        C  0.32544351  0.08606341  0.87143976    -0.14200
C778        C  0.32579875  0.05601221  0.87450332    -0.29400
H779        H  0.30387304  0.09785621  0.86953480     0.14800
H780        H  0.34706155  0.04413117  0.87817106     0.15400
C781        C  0.18814612  0.13967585  0.56822536    -0.14200
C782        C  0.16616437  0.11963018  0.57425836    -0.29400
H783        H  0.19087908  0.15977775  0.58212531     0.14800
H784        H  0.16401155  0.09922391  0.56067295     0.15400
C785        C  0.08795177  0.17821793  0.63168450    -0.14200
C786        C  0.05864494  0.17741739  0.63965863    -0.29400
H787        H  0.09703946  0.19957915  0.62346967     0.14800
H788        H  0.04775863  0.15666088  0.64688693     0.15400
C789        C  0.13458062  0.08391093  0.67629324    -0.14200
C790        C  0.12222134  0.05638797  0.67784363    -0.29400
H791        H  0.14859986  0.09231842  0.69471544     0.14800
H792        H  0.10675358  0.04869557  0.66029301     0.15400
C793        C  0.12904728  0.17310880  0.58132580    -0.14200
C794        C  0.10921932  0.17529775  0.55839878    -0.29400
H795        H  0.14714862  0.18967319  0.58346419     0.14800
H796        H  0.09010125  0.15978508  0.55725853     0.15400
C797        C  0.16815357  0.07421631  0.61962811    -0.14200
C798        C  0.19057751  0.06777953  0.63910716    -0.29400
H799        H  0.16617786  0.06115749  0.59887616     0.14800
H800        H  0.19314588  0.08101449  0.65966516     0.15400
C801        C  0.43589488  0.10930906  0.68271577    -0.14200
C802        C  0.41568525  0.13075616  0.67559173    -0.29400
H803        H  0.43708571  0.08849995  0.66978563     0.14800
H804        H  0.41585418  0.15188012  0.68824308     0.15400
C805        C  0.08191942  0.12781509  0.82519821    -0.14200
C806        C  0.05745680  0.11047807  0.82115517    -0.29400
H807        H  0.08822086  0.14436619  0.80817298     0.14800
H808        H  0.05245700  0.09272140  0.83741766     0.15400
C809        C  0.43113224  0.11427653  0.83789359    -0.14200
C810        C  0.43610967  0.13353101  0.81500974    -0.29400
H811        H  0.44437517  0.09361574  0.83962156     0.14800
H812        H  0.42255570  0.15396248  0.81322250     0.15400
C813        C  0.08703046  0.12937171  0.67879386    -0.14200
C814        C  0.06804092  0.10636829  0.68580573    -0.29400
H815        H  0.08513170  0.15074383  0.69083480     0.14800
H816        H  0.06892161  0.08544203  0.67302145     0.15400
O817        O  0.46825729  0.58831624  0.21248666    -0.70800
O818        O  0.03204392  0.60802917  0.28543506    -0.71700
O819        O  0.46183069  0.58848862  0.27626775    -0.60400
O820        O  0.03179807  0.59601214  0.22255785    -0.68800
O821        O  0.03237222  0.64558705  0.21404057    -0.68300
O822        O  0.46647712  0.63854846  0.27843958    -0.59600
O823        O  0.03259654  0.65747837  0.27647529    -0.72100
O824        O  0.46929251  0.63857849  0.21423106    -0.70900
Cu825      Cu  0.99981228  0.60031679  0.25453117     1.04600
Cu826      Cu  0.50040721  0.63842706  0.24801759     1.04300
C827        C  0.45928852  0.61389101  0.20269719     0.95400
C828        C  0.04285281  0.63440068  0.29050947     0.94600
C829        C  0.45319365  0.61415828  0.28647034     0.86700
C830        C  0.04237034  0.61898806  0.20860191     0.93000
C831        C  0.14851334  0.60312894  0.12800422     0.04500
C832        C  0.13045960  0.60682287  0.15427222     0.04500
C833        C  0.11035512  0.63163002  0.15647721     0.04500
C834        C  0.10955398  0.65385679  0.13352149     0.04500
C835        C  0.12899524  0.65144943  0.10808768     0.04500
C836        C  0.14772397  0.62538745  0.10483039     0.04500
C837        C  0.40499682  0.61905383  0.35894719     0.04500
C838        C  0.37969024  0.59913380  0.35667623     0.04500
C839        C  0.35638763  0.60025758  0.37889401     0.04500
C840        C  0.35922654  0.62007780  0.40397458     0.04500
C841        C  0.38405164  0.64036298  0.40584547     0.04500
C842        C  0.40666968  0.64008537  0.38320705     0.04500
O843        O  0.22641203  0.96423698  0.15520175    -0.70800
O844        O  0.28876134  0.53122403  0.14641825    -0.71700
O845        O  0.22608005  0.53106620  0.15947049    -0.60400
O846        O  0.28947117  0.96788399  0.14535368    -0.68800
O847        O  0.28182590  0.96959208  0.09563945    -0.68300
O848        O  0.21552752  0.53366576  0.11042667    -0.59600
O849        O  0.27908744  0.53443623  0.09714255    -0.72100
O850        O  0.21768423  0.96680628  0.10578343    -0.70900
Cu851      Cu  0.25762188  0.49892574  0.15238376     1.04600
Cu852      Cu  0.24845563  0.00012706  0.10024487     1.04300
C853        C  0.21282223  0.95457763  0.13153371     0.95400
C854        C  0.29427711  0.54245662  0.12041793     0.94600
C855        C  0.21120902  0.54271459  0.13758578     0.86700
C856        C  0.29648804  0.95981067  0.11854102     0.93000
C857        C  0.35272782  0.89508668  0.12647260     0.04500
C858        C  0.35372961  0.87262914  0.10372734     0.04500
C859        C  0.38001241  0.85462655  0.10012360     0.04500
C860        C  0.40466892  0.85814898  0.12036088     0.04500
C861        C  0.40381214  0.88097391  0.14296691     0.04500
C862        C  0.37798423  0.89996574  0.14577702     0.04500
O863        O  0.03184322  0.86324088  0.28479017    -0.70800
O864        O  0.47208829  0.84459676  0.22127943    -0.71700
O865        O  0.03715492  0.86182581  0.22046465    -0.60400
O866        O  0.46729489  0.85853149  0.28350111    -0.68800
O867        O  0.46581508  0.90718512  0.27086230    -0.68300
O868        O  0.04138312  0.91191546  0.22291620    -0.59600
O869        O  0.47386852  0.89342925  0.20958630    -0.72100
O870        O  0.02969747  0.91342698  0.28637622    -0.70900
Cu871      Cu  0.50198724  0.84998972  0.25548865     1.04600
Cu872      Cu  0.00396511  0.91543157  0.24916888     1.04300
C873        C  0.03963483  0.88847559  0.29688890     0.95400
C874        C  0.46329303  0.86689240  0.20508204     0.94600
C875        C  0.05034168  0.88630170  0.21274842     0.86700
C876        C  0.45493635  0.88462157  0.28528089     0.93000
C877        C  0.10607572  0.85016291  0.37502724     0.04500
C878        C  0.10581878  0.87224104  0.35174648     0.04500
C879        C  0.12959671  0.89388734  0.34950793     0.04500
C880        C  0.15446299  0.89213679  0.36984028     0.04500
C881        C  0.15516267  0.86984686  0.39277523     0.04500
C882        C  0.13103221  0.84884572  0.39552575     0.04500
O883        O  0.22532249  0.53321552  0.35440499    -0.70800
O884        O  0.28271723  0.96304937  0.35929912    -0.71700
O885        O  0.21875233  0.96765803  0.35245996    -0.60400
O886        O  0.28859393  0.53018372  0.36573322    -0.68800
O887        O  0.28060437  0.53036858  0.41536255    -0.68300
O888        O  0.21349379  0.97255194  0.40227245    -0.59600
O889        O  0.27813824  0.96724569  0.40916872    -0.72100
O890        O  0.21647836  0.53407958  0.40389015    -0.70900
Cu891      Cu  0.25361381  0.99697025  0.35168694     1.04600
Cu892      Cu  0.24664302  0.50051815  0.41156779     1.04300
C893        C  0.21122983  0.54397627  0.37719531     0.95400
C894        C  0.29027209  0.95488475  0.38597886     0.94600
C895        C  0.20486205  0.96147066  0.37705994     0.86700
C896        C  0.29550558  0.53935929  0.39234145     0.93000
O897        O  0.08832767  0.78498205  0.47258851    -0.70800
O898        O  0.10243807  0.71398714  0.03014327    -0.71700
O899        O  0.10803802  0.77839227  0.03663566    -0.60400
O900        O  0.08994899  0.72129979  0.46263233    -0.68800
O901        O  0.14034799  0.72061671  0.46473903    -0.68300
O902        O  0.15802112  0.77471845  0.03129754    -0.59600
O903        O  0.15252004  0.71051180  0.02531505    -0.72100
O904        O  0.13866428  0.78439870  0.47013434    -0.70900
Cu905      Cu  0.10020979  0.74954654  0.00200250     1.04600
Cu906      Cu  0.14117674  0.74956310  0.49966052     1.04300
C907        C  0.11311803  0.79578370  0.46231443     0.95400
C908        C  0.12748346  0.70099088  0.03648414     0.94600
C909        C  0.13492897  0.78608576  0.04452021     0.86700
C910        C  0.11555446  0.71243691  0.45226702     0.93000
O911        O  0.39043881  0.78523450  0.02957795    -0.70800
O912        O  0.38988157  0.71788033  0.46742607    -0.71700
O913        O  0.38412816  0.78161265  0.46379349    -0.60400
O914        O  0.39883305  0.72138925  0.02852718    -0.68800
O915        O  0.34896004  0.71567218  0.03328951    -0.68300
O916        O  0.33420389  0.77739531  0.46914706    -0.59600
O917        O  0.33985970  0.71432858  0.47272509    -0.72100
O918        O  0.34064316  0.77832334  0.03354539    -0.70900
Cu919      Cu  0.39216375  0.75240235  0.49739949     1.04600
Cu920      Cu  0.34022940  0.74707299  0.00131429     1.04300
C921        C  0.36498404  0.79118639  0.04227169     0.95400
C922        C  0.36450883  0.70565674  0.46033989     0.94600
C923        C  0.35722852  0.78814867  0.45522353     0.86700
C924        C  0.37605896  0.70895770  0.04128648     0.93000
C925        C  0.34795445  0.89157684  0.36955040     0.04500
C926        C  0.37328032  0.89569396  0.35000283     0.04500
C927        C  0.39716816  0.87407856  0.35004200     0.04500
C928        C  0.39542150  0.84874034  0.36961199     0.04500
C929        C  0.37200545  0.84652463  0.39149575     0.04500
C930        C  0.34778830  0.86763844  0.39079360     0.04500
O931        O  0.38040669  0.96786457  0.28094032    -0.70800
O932        O  0.37905134  0.53552292  0.21762962    -0.71700
O933        O  0.38325816  0.53419019  0.28163470    -0.60400
O934        O  0.37976867  0.96965760  0.21669128    -0.68800
O935        O  0.32941566  0.96764877  0.21779178    -0.68300
O936        O  0.33290913  0.53248949  0.28363316    -0.59600
O937        O  0.32882702  0.53272719  0.22061552    -0.72100
O938        O  0.32999495  0.96662851  0.28075553    -0.70900
Cu939      Cu  0.38448743  0.50242617  0.24900175     1.04600
Cu940      Cu  0.32687576  0.99956735  0.25016857     1.04300
C941        C  0.35535610  0.95624547  0.28993894     0.95400
C942        C  0.35271039  0.54520584  0.21009600     0.94600
C943        C  0.35812296  0.54390908  0.29227895     0.86700
C944        C  0.35480429  0.95794467  0.20771592     0.93000
C945        C  0.34395247  0.61201665  0.13170965     0.04500
C946        C  0.36833585  0.60991671  0.15267246     0.04500
C947        C  0.39055019  0.63325286  0.15325638     0.04500
C948        C  0.38888140  0.65757299  0.13261499     0.04500
C949        C  0.36513898  0.65890474  0.11119668     0.04500
C950        C  0.34266126  0.63623181  0.11085021     0.04500
O951        O  0.46868880  0.71371548  0.08962135    -0.70800
O952        O  0.03213617  0.78561085  0.10659443    -0.71700
O953        O  0.03279623  0.72222709  0.09521613    -0.60400
O954        O  0.46303976  0.77754260  0.09031256    -0.68800
O955        O  0.46787082  0.77909850  0.14036701    -0.73100
O956        O  0.03333173  0.71432039  0.14482847    -0.59600
O957        O  0.03231444  0.77737262  0.15612857    -0.72100
O958        O  0.47018947  0.71518617  0.13986572    -0.70900
Cu959      Cu  0.00038117  0.75377695  0.09923066     1.04600
Cu960      Cu  0.50152258  0.74856454  0.13966809     1.04300
C961        C  0.45972695  0.70402629  0.11525785     0.95400
C962        C  0.04216799  0.79170799  0.13307279     0.94600
C963        C  0.04349263  0.70862936  0.11831588     0.86700
C964        C  0.45460923  0.78747209  0.11612077     0.93000
C965        C  0.14521041  0.90059418  0.11923153     0.04500
C966        C  0.12115411  0.90157349  0.14050731     0.04500
C967        C  0.09816120  0.87915358  0.14026262     0.04500
C968        C  0.09860580  0.85644519  0.11761190     0.04500
C969        C  0.12289037  0.85498000  0.09664803     0.04500
C970        C  0.14663179  0.87668531  0.09772888     0.04500
O971        O  0.11310973  0.96251654  0.21817203    -0.70800
O972        O  0.11147376  0.52850363  0.28608142    -0.71700
O973        O  0.10036193  0.52702297  0.22198236    -0.60400
O974        O  0.11881771  0.96416596  0.28194308    -0.68800
O975        O  0.16880834  0.96866421  0.27748435    -0.68300
O976        O  0.15001597  0.53221714  0.21493305    -0.59600
O977        O  0.16113734  0.53146762  0.27817005    -0.72100
O978        O  0.16325417  0.96697102  0.21450357    -0.70900
Cu979      Cu  0.10653947  0.49574629  0.25465502     1.04600
Cu980      Cu  0.16463992  0.00024680  0.24468283     1.04300
C981        C  0.13845402  0.95447517  0.20655374     0.95400
C982        C  0.13735421  0.54007914  0.29230805     0.94600
C983        C  0.12271907  0.53930319  0.20825070     0.86700
C984        C  0.14557914  0.95571311  0.28908031     0.93000
C985        C  0.09936907  0.61887504  0.35527278     0.04500
C986        C  0.09969572  0.64299746  0.37647640     0.04500
C987        C  0.11908752  0.64154842  0.40211651     0.04500
C988        C  0.14020535  0.61748437  0.40479498     0.04500
C989        C  0.14071106  0.59416134  0.38285979     0.04500
C990        C  0.11998912  0.59451005  0.35840908     0.04500
O991        O  0.46666166  0.72065319  0.34000180    -0.70800
O992        O  0.03758426  0.77638603  0.36028665    -0.71700
O993        O  0.02938597  0.71265031  0.36233121    -0.60400
O994        O  0.46813027  0.78458584  0.34829698    -0.68800
O995        O  0.47422215  0.77880985  0.39782735    -0.68300
O996        O  0.02580346  0.71183163  0.41245545    -0.59600
O997        O  0.04069679  0.77424369  0.41042188    -0.72100
O998        O  0.47154181  0.71442922  0.38959942    -0.70900
Cu999      Cu  0.00141874  0.74918178  0.35965348     1.04600
Cu1000     Cu  0.50483608  0.74606922  0.39212350     1.04300
C1001       C  0.45909768  0.70725016  0.36437852     0.95400
C1002       C  0.05116249  0.78299122  0.38487224     0.94600
C1003       C  0.03568604  0.70047382  0.38790002     0.86700
C1004       C  0.46158520  0.79205317  0.37556892     0.93000
O1005       O  0.21336700  0.60887608  0.03416452    -0.70800
O1006       O  0.27811001  0.60649839  0.46479842    -0.71700
O1007       O  0.27653762  0.59670206  0.03407947    -0.60400
O1008       O  0.21386127  0.61236883  0.46977323    -0.68800
O1009       O  0.21740705  0.66250768  0.46915780    -0.68300
O1010       O  0.28521584  0.64623359  0.03203289    -0.59600
O1011       O  0.28049859  0.65665037  0.46136585    -0.72100
O1012       O  0.22278782  0.65821207  0.03165325    -0.70900
Cu1013     Cu  0.24843043  0.60865543  0.49943051     1.04600
Cu1014     Cu  0.25420943  0.65212607  0.99948701     1.04300
C1015       C  0.20876328  0.63590341  0.04349788     0.95400
C1016       C  0.28804425  0.63041748  0.45191704     0.94600
C1017       C  0.29071145  0.62018366  0.04326930     0.86700
C1018       C  0.20471364  0.63811187  0.46017571     0.93000
O1019       O  0.22591413  0.91353120  0.46590374    -0.70800
O1020       O  0.28628669  0.91521966  0.03077578    -0.71700
O1021       O  0.29041999  0.90552799  0.47016934    -0.60400
O1022       O  0.22130786  0.91763943  0.02838028    -0.68800
O1023       O  0.21933820  0.86747117  0.03103170    -0.68300
O1024       O  0.28360837  0.85569167  0.46846121    -0.59600
O1025       O  0.28439127  0.86499989  0.03336435    -0.72100
O1026       O  0.21971387  0.86364525  0.46560804    -0.70900
Cu1027     Cu  0.25516564  0.91670413  0.99814994     1.04600
Cu1028     Cu  0.25297081  0.86294457  0.00037941     1.04300
C1029       C  0.21299562  0.88976406  0.45538620     0.95400
C1030       C  0.29602373  0.89026244  0.04148268     0.94600
C1031       C  0.29801626  0.87951601  0.46031898     0.86700
C1032       C  0.20921813  0.89350787  0.03871635     0.93000
C1033       C  0.16254137  0.61630553  0.43027047    -0.14200
C1034       C  0.17993129  0.64015806  0.43781899    -0.29400
H1035       H  0.16670381  0.59462818  0.44108332     0.14800
H1036       H  0.17673175  0.66167819  0.42640472     0.15400
C1037       C  0.05453576  0.67309872  0.38994833    -0.14200
C1038       C  0.07884673  0.66909896  0.37233376    -0.29400
H1039       H  0.05017119  0.65729549  0.40826800     0.14800
H1040       H  0.08446196  0.68592293  0.35534580     0.15400
C1041       C  0.14006043  0.56397103  0.31562350    -0.14200
C1042       C  0.11850089  0.56872085  0.33660899    -0.29400
H1043       H  0.16010498  0.57824316  0.31526549     0.14800
H1044       H  0.09817644  0.55478751  0.33660821     0.15400
C1045       C  0.17301914  0.87366337  0.07666105    -0.14200
C1046       C  0.18277481  0.89634942  0.05894130    -0.29400
H1047       H  0.18454842  0.85200791  0.07556988     0.14800
H1048       H  0.17089187  0.91782673  0.05888244     0.15400
C1049       C  0.11907879  0.92707939  0.16227749    -0.14200
C1050       C  0.13985878  0.93023407  0.18410194    -0.29400
H1051       H  0.09929462  0.94175016  0.16168432     0.14800
H1052       H  0.15904967  0.91491363  0.18512162     0.15400
C1053       C  0.06549590  0.81532142  0.13729939    -0.14200
C1054       C  0.07337547  0.83412001  0.11478706    -0.29400
H1055       H  0.07662148  0.81712150  0.15916916     0.14800
H1056       H  0.06254824  0.83175011  0.09283373     0.15400
C1057       C  0.31785803  0.63828547  0.08810130    -0.14200
C1058       C  0.31384143  0.61697900  0.06685798    -0.29400
H1059       H  0.30425400  0.65879002  0.08746606     0.14800
H1060       H  0.32778436  0.59679181  0.06667586     0.15400
C1061       C  0.41235005  0.68159899  0.13359911    -0.14200
C1062       C  0.43696413  0.67982287  0.11593926    -0.29400
H1063       H  0.40936205  0.70050635  0.14905699     0.14800
H1064       H  0.43910992  0.66135064  0.09982992     0.15400
C1065       C  0.34910561  0.57181190  0.19017020    -0.14200
C1066       C  0.37172970  0.58297233  0.17309634    -0.29400
H1067       H  0.32715405  0.58287985  0.19031749     0.14800
H1068       H  0.39365544  0.57196665  0.17422924     0.15400
C1069       C  0.32214648  0.86534522  0.41243792    -0.14200
C1070       C  0.32426655  0.87758139  0.44002509    -0.29400
H1071       H  0.30085378  0.85555763  0.40476757     0.14800
H1072       H  0.34482043  0.88964743  0.44637388     0.15400
C1073       C  0.41624688  0.82268452  0.36405312    -0.14200
C1074       C  0.43981861  0.81653680  0.38214743    -0.29400
H1075       H  0.41340966  0.81007088  0.34311894     0.14800
H1076       H  0.44304073  0.82953711  0.40276774     0.15400
C1077       C  0.35472677  0.92946115  0.30964644    -0.14200
C1078       C  0.37549704  0.92352001  0.33101500    -0.29400
H1079       H  0.33604113  0.91382703  0.30620039     0.14800
H1080       H  0.39508238  0.93824819  0.33365745     0.15400
C1081       C  0.38137433  0.68655594  0.06533911    -0.14200
C1082       C  0.36271491  0.68424255  0.08919026    -0.29400
H1083       H  0.40089556  0.67173231  0.06337114     0.14800
H1084       H  0.34303590  0.69898404  0.09073267     0.15400
C1085       C  0.37531394  0.82419804  0.41673610    -0.14200
C1086       C  0.35251196  0.80783146  0.42868454    -0.29400
H1087       H  0.39768404  0.82192432  0.42664397     0.14800
H1088       H  0.32995096  0.80861383  0.41893257     0.15400
C1089       C  0.11680472  0.69286443  0.42543247    -0.14200
C1090       C  0.11511561  0.66270639  0.42816800    -0.29400
H1091       H  0.12125310  0.70316184  0.40358717     0.14800
H1092       H  0.11303880  0.65293660  0.45064424     0.15400
C1093       C  0.13952593  0.80866662  0.06876503    -0.14200
C1094       C  0.12089025  0.83254290  0.07146535    -0.29400
H1095       H  0.15879374  0.80618367  0.08387520     0.14800
H1096       H  0.10189950  0.83472018  0.05592597     0.15400
C1097       C  0.18892275  0.56818883  0.37225612    -0.14200
C1098       C  0.16222494  0.56860542  0.38674352    -0.29400
H1099       H  0.19405247  0.58546783  0.35556183     0.14800
H1100       H  0.15682726  0.55120435  0.40324596     0.15400
C1101       C  0.31428364  0.93201168  0.39003610    -0.14200
C1102       C  0.32154220  0.91261107  0.36778707    -0.29400
H1103       H  0.32709065  0.93210238  0.41100231     0.14800
H1104       H  0.30800100  0.91246582  0.34732269     0.15400
C1105       C  0.18091078  0.86858636  0.41483319    -0.14200
C1106       C  0.18939160  0.89244689  0.43191426    -0.29400
H1107       H  0.19196962  0.84690317  0.41828334     0.14800
H1108       H  0.17798068  0.91403915  0.42960150     0.15400
C1109       C  0.07940025  0.80054908  0.38339100    -0.14200
C1110       C  0.07860584  0.83043088  0.37817614    -0.29400
H1111       H  0.10076683  0.78859904  0.38572021     0.14800
H1112       H  0.05657634  0.84094282  0.37458073     0.15400
C1113       C  0.12687823  0.91935718  0.32720575    -0.14200
C1114       C  0.14978702  0.92999784  0.31000322    -0.29400
H1115       H  0.10496013  0.93024746  0.32524056     0.14800
H1116       H  0.17193327  0.91932350  0.31052106     0.15400
C1117       C  0.13314226  0.82533193  0.41966072    -0.14200
C1118       C  0.11165139  0.82121389  0.44075858    -0.29400
H1119       H  0.15317047  0.81100404  0.41991445     0.14800
H1120       H  0.09133352  0.83513489  0.44043915     0.15400
C1121       C  0.18047124  0.91313148  0.36707185    -0.14200
C1122       C  0.17828382  0.94172874  0.37661358    -0.29400
H1123       H  0.20212344  0.90427170  0.35928279     0.14800
H1124       H  0.15741235  0.94965392  0.38705544     0.15400
C1125       C  0.07625398  0.88477536  0.19204375    -0.14200
C1126       C  0.07226283  0.88061802  0.16214974    -0.29400
H1127       H  0.09881083  0.88668273  0.20165720     0.14800
H1128       H  0.04938870  0.87719887  0.15355692     0.15400
C1129       C  0.42548647  0.87725361  0.33139010    -0.14200
C1130       C  0.42702229  0.88814909  0.30311191    -0.29400
H1131       H  0.44623979  0.86781786  0.34078375     0.14800
H1132       H  0.40741274  0.89736608  0.29165795     0.15400
C1133       C  0.06051770  0.88969577  0.32301531    -0.14200
C1134       C  0.08278518  0.86942042  0.32705010    -0.29400
H1135       H  0.05908552  0.90915809  0.33799469     0.14800
H1136       H  0.08421133  0.84980945  0.31225708     0.15400
C1137       C  0.32773922  0.86955365  0.08245415    -0.14200
C1138       C  0.32203710  0.89119391  0.06211735    -0.29400
H1139       H  0.31264450  0.85023838  0.08441645     0.14800
H1140       H  0.33700325  0.91066140  0.06066712     0.15400
C1141       C  0.43162516  0.83794161  0.11778595    -0.14200
C1142       C  0.42846865  0.80774622  0.11804004    -0.29400
H1143       H  0.45420067  0.84788896  0.11761902     0.14800
H1144       H  0.40609671  0.79756465  0.11987783     0.15400
C1145       C  0.37828207  0.92566004  0.16811039    -0.14200
C1146       C  0.35481410  0.93211043  0.18653258    -0.29400
H1147       H  0.39847238  0.93970352  0.16934614     0.14800
H1148       H  0.33484411  0.91778367  0.18661697     0.15400
C1149       C  0.36281366  0.81216170  0.06797879    -0.14200
C1150       C  0.38321032  0.83389624  0.07363607    -0.29400
H1151       H  0.34340922  0.80950697  0.08285435     0.14800
H1152       H  0.40345791  0.83563630  0.05970300     0.15400
C1153       C  0.43991481  0.86203621  0.18172570    -0.14200
C1154       C  0.42962020  0.88485186  0.16439227    -0.29400
H1155       H  0.42985577  0.83965572  0.17978254     0.14800
H1156       H  0.43898404  0.90739985  0.16731032     0.15400
C1157       C  0.19203777  0.92847447  0.13394818    -0.14200
C1158       C  0.16664074  0.92666004  0.11730925    -0.29400
H1159       H  0.19740133  0.91073387  0.15005399     0.14800
H1160       H  0.16067340  0.94519343  0.10231857     0.15400
C1161       C  0.31896334  0.56433692  0.11731006    -0.14200
C1162       C  0.31846230  0.59025655  0.13286795    -0.29400
H1163       H  0.33773432  0.55911799  0.10226264     0.14800
H1164       H  0.29897701  0.59582547  0.14688893     0.15400
C1165       C  0.32262724  0.94004160  0.11405261    -0.14200
C1166       C  0.32520993  0.91407872  0.12927889    -0.29400
H1167       H  0.34020089  0.94707327  0.09832944     0.14800
H1168       H  0.30692679  0.90643579  0.14390429     0.15400
C1169       C  0.33708610  0.61879312  0.42930244    -0.14200
C1170       C  0.30836853  0.62800669  0.42581016    -0.29400
H1171       H  0.34536332  0.61283033  0.45168474     0.14800
H1172       H  0.30082627  0.63684923  0.40415508     0.15400
C1173       C  0.43154095  0.66298272  0.38480360    -0.14200
C1174       C  0.43582461  0.68327265  0.36265166    -0.29400
H1175       H  0.44494121  0.66449578  0.40537320     0.14800
H1176       H  0.42214146  0.68186388  0.34223002     0.15400
C1177       C  0.35775136  0.56921109  0.31399620    -0.14200
C1178       C  0.38026285  0.57401336  0.33395271    -0.29400
H1179       H  0.33840266  0.58431676  0.31328278     0.14800
H1180       H  0.40025894  0.55963658  0.33328402     0.15400
C1181       C  0.38599712  0.66327314  0.43072146    -0.14200
C1182       C  0.36285364  0.68198589  0.43699266    -0.29400
H1183       H  0.40730243  0.66594112  0.44279727     0.14800
H1184       H  0.34172523  0.67999738  0.42453895     0.15400
C1185       C  0.32928620  0.58022406  0.37595959    -0.14200
C1186       C  0.32151168  0.55976504  0.39689203    -0.29400
H1187       H  0.31505508  0.58250192  0.35613512     0.14800
H1188       H  0.33438120  0.55797548  0.41777189     0.15400
C1189       C  0.18794770  0.64162042  0.06888876    -0.14200
C1190       C  0.16742412  0.62103028  0.07777108    -0.29400
H1191       H  0.18988622  0.66304988  0.08081386     0.14800
H1192       H  0.16606266  0.59956197  0.06585674     0.15400
C1193       C  0.08711501  0.67902389  0.13627570    -0.14200
C1194       C  0.06757125  0.68595828  0.11403084    -0.29400
H1195       H  0.08494360  0.69037405  0.15798340     0.14800
H1196       H  0.06912988  0.67468725  0.09223645     0.15400
C1197       C  0.13407724  0.58589746  0.18033242    -0.14200
C1198       C  0.11693556  0.56105853  0.18372235    -0.29400
H1199       H  0.15174407  0.59093165  0.19673476     0.14800
H1200       H  0.09858907  0.55637149  0.16801580     0.15400
C1201       C  0.13062526  0.67745203  0.08649523    -0.14200
C1202       C  0.12718141  0.67441473  0.05648192    -0.29400
H1203       H  0.13277819  0.70009056  0.09595368     0.14800
H1204       H  0.12298118  0.65231027  0.04655965     0.15400
C1205       C  0.16821489  0.57582878  0.12394787    -0.14200
C1206       C  0.18976854  0.56762297  0.14385196    -0.29400
H1207       H  0.16619467  0.56330911  0.10288995     0.14800
H1208       H  0.19272603  0.58019460  0.16473749     0.15400
C1209       C  0.43700913  0.61417894  0.17797507    -0.14200
C1210       C  0.41428702  0.63422454  0.17715134    -0.29400
H1211       H  0.43790411  0.59606024  0.16135977     0.14800
H1212       H  0.41344697  0.65249578  0.19362151     0.15400
C1213       C  0.07475549  0.61635178  0.33224441    -0.14200
C1214       C  0.06769598  0.63828205  0.31245046    -0.29400
H1215       H  0.06228189  0.59514331  0.33144891     0.14800
H1216       H  0.08047285  0.65925301  0.31198100     0.15400
C1217       C  0.43093355  0.61720691  0.33717125    -0.14200
C1218       C  0.42711240  0.61572517  0.30707822    -0.29400
H1219       H  0.45386990  0.61862870  0.34615287     0.14800
H1220       H  0.40453352  0.61583381  0.29726197     0.15400
C1221       C  0.08890624  0.63418185  0.18229432    -0.14200
C1222       C  0.06595121  0.61454147  0.18562876    -0.29400
H1223       H  0.09024418  0.65401461  0.19680734     0.14800
H1224       H  0.06411597  0.59499441  0.17088638     0.15400
O1225       O  0.46697453  0.59097609  0.71772250    -0.70800
O1226       O  0.02514747  0.59109742  0.78119679    -0.71700
O1227       O  0.46289432  0.59709382  0.78232401    -0.60400
O1228       O  0.02835833  0.59249355  0.71648416    -0.68800
O1229       O  0.03924353  0.64150077  0.71892300    -0.68300
O1230       O  0.46848754  0.64689255  0.77826345    -0.59600
O1231       O  0.03503802  0.64039704  0.78289519    -0.72100
O1232       O  0.47070378  0.64098958  0.71413140    -0.70900
Cu1233     Cu  0.99498470  0.59648213  0.74793407     1.04600
Cu1234     Cu  0.50190160  0.64247099  0.74817106     1.04300
C1235       C  0.45935047  0.61575511  0.70522754     0.95400
C1236       C  0.03894167  0.61353710  0.79304171     0.94600
C1237       C  0.45576435  0.62406053  0.79042959     0.86700
C1238       C  0.04436584  0.61520704  0.70811620     0.93000
C1239       C  0.14970624  0.60306639  0.62519660     0.04500
C1240       C  0.13078533  0.60640860  0.65091485     0.04500
C1241       C  0.10988107  0.63078007  0.65260497     0.04500
C1242       C  0.10987625  0.65356909  0.62975696     0.04500
C1243       C  0.13107739  0.65152835  0.60560044     0.04500
C1244       C  0.15034979  0.62602745  0.60297635     0.04500
C1245       C  0.40334919  0.61475465  0.85928355     0.04500
C1246       C  0.37764699  0.59552227  0.85873621     0.04500
C1247       C  0.35290495  0.60128483  0.87838935     0.04500
C1248       C  0.35450607  0.62505207  0.89976278     0.04500
C1249       C  0.38089749  0.64354642  0.90108681     0.04500
C1250       C  0.40491996  0.63917626  0.88013125     0.04500
O1251       O  0.22482905  0.96658620  0.65582075    -0.70800
O1252       O  0.28671181  0.53087535  0.64347141    -0.71700
O1253       O  0.22440687  0.52894301  0.65715188    -0.60400
O1254       O  0.28761692  0.96658916  0.64436748    -0.68800
O1255       O  0.27631976  0.96452380  0.59535429    -0.68300
O1256       O  0.21502294  0.53136741  0.60785274    -0.59600
O1257       O  0.27813221  0.52974767  0.59396908    -0.72100
O1258       O  0.21371074  0.96890582  0.60686358    -0.70900
Cu1259     Cu  0.25666658  0.49766044  0.65134932     1.04600
Cu1260     Cu  0.24679585  0.99892405  0.59917711     1.04300
C1261       C  0.20960927  0.95729336  0.63298436     0.95400
C1262       C  0.29227296  0.54051495  0.61674729     0.94600
C1263       C  0.21031572  0.54070665  0.63488709     0.86700
C1264       C  0.29114091  0.95490519  0.61822682     0.93000
C1265       C  0.36256237  0.90626533  0.61838443     0.04500
C1266       C  0.36283607  0.88498674  0.59437097     0.04500
C1267       C  0.38415811  0.86106211  0.59433652     0.04500
C1268       C  0.40457659  0.85791877  0.61880912     0.04500
C1269       C  0.40360691  0.87849805  0.64350932     0.04500
C1270       C  0.38274791  0.90299029  0.64320975     0.04500
O1271       O  0.03593607  0.85303340  0.78691730    -0.70800
O1272       O  0.47364474  0.85871545  0.71122878    -0.71700
O1273       O  0.04353280  0.85384097  0.72342994    -0.60400
O1274       O  0.46702440  0.84722021  0.77381772    -0.68800
O1275       O  0.46615911  0.89682234  0.78217011    -0.68300
O1276       O  0.03531429  0.90349582  0.72273494    -0.59600
O1277       O  0.47591244  0.90836671  0.71889636    -0.72100
O1278       O  0.02809013  0.90269567  0.78716608    -0.70900
Cu1279     Cu  0.50235223  0.85066903  0.74614238     1.04600
Cu1280     Cu  0.99979284  0.89992324  0.75173809     1.04300
C1281       C  0.04097741  0.87933014  0.79814568     0.95400
C1282       C  0.46623993  0.88573716  0.70377139     0.94600
C1283       C  0.05024703  0.88020970  0.71400591     0.86700
C1284       C  0.45549178  0.87022064  0.78679863     0.93000
C1285       C  0.11146140  0.84733816  0.87306970     0.04500
C1286       C  0.11008464  0.87013581  0.85045029     0.04500
C1287       C  0.13244677  0.89325887  0.84939514     0.04500
C1288       C  0.15730495  0.89211908  0.86981340     0.04500
C1289       C  0.15947078  0.86844656  0.89123035     0.04500
C1290       C  0.13657481  0.84629554  0.89300726     0.04500
O1291       O  0.22502521  0.53106745  0.85102579    -0.70800
O1292       O  0.28179611  0.96406079  0.85769782    -0.71700
O1293       O  0.21784320  0.96919008  0.85320085    -0.60400
O1294       O  0.28865519  0.52587569  0.85927220    -0.68800
O1295       O  0.28301710  0.52848541  0.90920649    -0.68300
O1296       O  0.21482122  0.97557580  0.90301492    -0.59600
O1297       O  0.27972028  0.97140084  0.90740076    -0.72100
O1298       O  0.21849999  0.53419875  0.90078525    -0.70900
Cu1299     Cu  0.25295253  0.99798543  0.84971691     1.04600
Cu1300     Cu  0.24770220  0.49987638  0.90856557     1.04300
C1301       C  0.21241345  0.54326130  0.87398731     0.95400
C1302       C  0.29081876  0.95778076  0.88442367     0.94600
C1303       C  0.20535322  0.96333517  0.87862491     0.86700
C1304       C  0.29720838  0.53566323  0.88509655     0.93000
O1305       O  0.10075978  0.78469470  0.97381814    -0.70800
O1306       O  0.08903488  0.71218283  0.52636082    -0.71700
O1307       O  0.08889165  0.77538028  0.53630837    -0.60400
O1308       O  0.09646373  0.72096336  0.96626936    -0.68800
O1309       O  0.14656509  0.71744636  0.96163203    -0.68300
O1310       O  0.13920198  0.77864328  0.53423067    -0.59600
O1311       O  0.13927557  0.71470653  0.52957132    -0.72100
O1312       O  0.15061722  0.78130516  0.96713559    -0.70900
Cu1313     Cu  0.08729201  0.74843588  0.49942613     1.04600
Cu1314     Cu  0.15372308  0.74588196  0.99623453     1.04300
C1315       C  0.12510433  0.79396156  0.96134499     0.95400
C1316       C  0.11397892  0.70266986  0.53740001     0.94600
C1317       C  0.11402490  0.78557357  0.54661877     0.86700
C1318       C  0.11990648  0.71048377  0.95276733     0.93000
O1319       O  0.39060510  0.78670365  0.52810601    -0.70800
O1320       O  0.39262227  0.72093611  0.96432837    -0.71700
O1321       O  0.38541086  0.78442394  0.96480622    -0.60400
O1322       O  0.39697953  0.72237845  0.53079572    -0.68800
O1323       O  0.34711239  0.71770845  0.53667696    -0.68300
O1324       O  0.33550380  0.77882565  0.96890860    -0.59600
O1325       O  0.34255838  0.71628737  0.96869572    -0.72100
O1326       O  0.34083448  0.78120567  0.53374504    -0.70900
Cu1327     Cu  0.39362942  0.75326499  0.99671077     1.04600
Cu1328     Cu  0.33877987  0.74760088  0.50333230     1.04300
C1329       C  0.36565500  0.79428512  0.54090913     0.95400
C1330       C  0.36741698  0.70936652  0.95574183     0.94600
C1331       C  0.35854041  0.79079485  0.95600519     0.86700
C1332       C  0.37422021  0.71043592  0.54402987     0.93000
C1333       C  0.34895332  0.89473746  0.87038802     0.04500
C1334       C  0.37430174  0.89908753  0.85123333     0.04500
C1335       C  0.39821687  0.87793699  0.85153973     0.04500
C1336       C  0.39720620  0.85266398  0.87123654     0.04500
C1337       C  0.37356641  0.85017500  0.89295347     0.04500
C1338       C  0.34908492  0.87104891  0.89190052     0.04500
O1339       O  0.38235056  0.96872338  0.78025002    -0.70800
O1340       O  0.38160892  0.53571671  0.72162604    -0.71700
O1341       O  0.38044157  0.53053902  0.78539407    -0.60400
O1342       O  0.38239014  0.96982995  0.71594334    -0.68800
O1343       O  0.33201974  0.96919123  0.71566869    -0.68300
O1344       O  0.33001867  0.52954170  0.78486527    -0.59600
O1345       O  0.33118665  0.53579824  0.72232309    -0.72100
O1346       O  0.33194956  0.96781576  0.77901920    -0.70900
Cu1347     Cu  0.38319955  0.50079545  0.75119123     1.04600
Cu1348     Cu  0.32967853  0.00089867  0.74853645     1.04300
C1349       C  0.35702746  0.95739267  0.78886040     0.95400
C1350       C  0.35625710  0.54745634  0.71379099     0.94600
C1351       C  0.35490721  0.53989546  0.79543210     0.86700
C1352       C  0.35739120  0.95912840  0.70584968     0.93000
C1353       C  0.34643971  0.60708066  0.63170522     0.04500
C1354       C  0.37093409  0.60744577  0.65260987     0.04500
C1355       C  0.39176059  0.63191390  0.65253256     0.04500
C1356       C  0.38840128  0.65548452  0.63127745     0.04500
C1357       C  0.36463162  0.65461806  0.60970689     0.04500
C1358       C  0.34376065  0.63018231  0.60966789     0.04500
O1359       O  0.46764793  0.72005695  0.59653768    -0.70800
O1360       O  0.03694208  0.78128011  0.60729540    -0.71700
O1361       O  0.03591986  0.71669286  0.60844993    -0.60400
O1362       O  0.46673602  0.78361420  0.60719853    -0.68800
O1363       O  0.46633149  0.77555383  0.65678728    -0.73100
O1364       O  0.02439257  0.71597663  0.65737499    -0.59600
O1365       O  0.02843539  0.78099015  0.65680838    -0.72100
O1366       O  0.46725892  0.71259030  0.64626163    -0.70900
Cu1367     Cu  0.00539207  0.74916698  0.59994872     1.04600
Cu1368     Cu  0.49919363  0.74417124  0.65323687     1.04300
C1369       C  0.45751076  0.70624436  0.61979466     0.95400
C1370       C  0.04240144  0.79155719  0.63381724     0.94600
C1371       C  0.03929999  0.70552294  0.63483468     0.86700
C1372       C  0.45631053  0.78946096  0.63352929     0.93000
C1373       C  0.14326700  0.90223944  0.61972264     0.04500
C1374       C  0.11942953  0.90281849  0.64119987     0.04500
C1375       C  0.09661596  0.88029539  0.64080577     0.04500
C1376       C  0.09715880  0.85749168  0.61821556     0.04500
C1377       C  0.12130345  0.85654636  0.59686114     0.04500
C1378       C  0.14476341  0.87849080  0.59811695     0.04500
O1379       O  0.11116333  0.96270755  0.72043057    -0.70800
O1380       O  0.11540969  0.52816462  0.78262125    -0.71700
O1381       O  0.10646160  0.52607824  0.71820546    -0.60400
O1382       O  0.11837144  0.96552627  0.78406515    -0.68800
O1383       O  0.16823860  0.96996611  0.77822008    -0.68300
O1384       O  0.15616362  0.53206976  0.71209615    -0.59600
O1385       O  0.16508197  0.53302434  0.77579796    -0.72100
O1386       O  0.16122271  0.96695249  0.71551142    -0.70900
Cu1387     Cu  0.11242825  0.49510435  0.75068497     1.04600
Cu1388     Cu  0.16346429  0.00079428  0.74513782     1.04300
C1389       C  0.13619888  0.95433998  0.70842480     0.95400
C1390       C  0.14070105  0.54098108  0.78914569     0.94600
C1391       C  0.12881040  0.53832069  0.70457574     0.86700
C1392       C  0.14535311  0.95720702  0.79059619     0.93000
C1393       C  0.10148591  0.62128709  0.85285858     0.04500
C1394       C  0.09972448  0.64225974  0.87727077     0.04500
C1395       C  0.12039415  0.63969190  0.90190368     0.04500
C1396       C  0.14206670  0.61590195  0.90214617     0.04500
C1397       C  0.14212719  0.59394414  0.87885487     0.04500
C1398       C  0.12179742  0.59647157  0.85420603     0.04500
O1399       O  0.46188995  0.72045901  0.85077727    -0.70800
O1400       O  0.03156193  0.78020181  0.83961164    -0.71700
O1401       O  0.02732653  0.71703200  0.83993830    -0.60400
O1402       O  0.46647398  0.78471191  0.85240127    -0.68800
O1403       O  0.47704609  0.78399734  0.90149977    -0.68300
O1404       O  0.03521240  0.71557387  0.88953980    -0.59600
O1405       O  0.04126899  0.77946653  0.88892023    -0.72100
O1406       O  0.47034433  0.71940852  0.90030823    -0.70900
Cu1407     Cu  0.99718068  0.75104694  0.84399565     1.04600
Cu1408     Cu  0.50555842  0.74896182  0.89655954     1.04300
C1409       C  0.45531691  0.71064690  0.87708927     0.95400
C1410       C  0.04756537  0.78856029  0.86215678     0.94600
C1411       C  0.04108026  0.70601586  0.86287719     0.86700
C1412       C  0.46276502  0.79535023  0.87913257     0.93000
O1413       O  0.21917466  0.61432862  0.53368799    -0.70800
O1414       O  0.27654811  0.59317262  0.97064417    -0.71700
O1415       O  0.28314452  0.60862566  0.52920245    -0.60400
O1416       O  0.21259903  0.60540098  0.96990351    -0.68800
O1417       O  0.22214080  0.65467022  0.96721048    -0.68300
O1418       O  0.28898281  0.65843643  0.52512218    -0.59600
O1419       O  0.28567762  0.64254734  0.96797242    -0.72100
O1420       O  0.22548134  0.66421968  0.53317674    -0.70900
Cu1421     Cu  0.24431155  0.59930499  0.00218228     1.04600
Cu1422     Cu  0.25323841  0.66218540  0.49718125     1.04300
C1423       C  0.21338425  0.64053013  0.54451044     0.95400
C1424       C  0.29169055  0.61538019  0.95996202     0.94600
C1425       C  0.29696664  0.63305135  0.53635013     0.86700
C1426       C  0.20720487  0.63145466  0.95850279     0.93000
O1427       O  0.22421525  0.91479377  0.96526782    -0.70800
O1428       O  0.28740727  0.90425552  0.53328135    -0.71700
O1429       O  0.28883354  0.91232335  0.96823426    -0.60400
O1430       O  0.22293948  0.91409599  0.52961053    -0.68800
O1431       O  0.21560150  0.86436031  0.52973177    -0.68300
O1432       O  0.28646590  0.86204896  0.96954615    -0.59600
O1433       O  0.27938351  0.85458879  0.53248497    -0.72100
O1434       O  0.22220247  0.86454171  0.96694198    -0.70900
Cu1435     Cu  0.25688080  0.91111558  0.49977124     1.04600
Cu1436     Cu  0.24932511  0.85783694  0.49905130     1.04300
C1437       C  0.21332781  0.88973661  0.95586427     0.95400
C1438       C  0.29335798  0.87758195  0.54292135     0.94600
C1439       C  0.29858373  0.88646328  0.95985185     0.86700
C1440       C  0.20837065  0.89094782  0.53885857     0.93000
C1441       C  0.16454071  0.61276176  0.92728031    -0.14200
C1442       C  0.18368370  0.63518967  0.93497990    -0.29400
H1443       H  0.16680617  0.59076591  0.93802018     0.14800
H1444       H  0.18212095  0.65692026  0.92359323     0.15400
C1445       C  0.06502316  0.68318346  0.85812095    -0.14200
C1446       C  0.07359630  0.66381899  0.87997079    -0.29400
H1447       H  0.07676542  0.68374725  0.83664824     0.14800
H1448       H  0.06216234  0.66495860  0.90173167     0.15400
C1449       C  0.14250430  0.56538608  0.81203465    -0.14200
C1450       C  0.11967387  0.57190708  0.83101992    -0.29400
H1451       H  0.16342517  0.57829041  0.81339851     0.14800
H1452       H  0.09849996  0.55946728  0.82922770     0.15400
C1453       C  0.17193206  0.87431803  0.57814149    -0.14200
C1454       C  0.18248894  0.89583732  0.55950241    -0.29400
H1455       H  0.18219355  0.85195870  0.57742378     0.14800
H1456       H  0.17170992  0.91785933  0.55887170     0.15400
C1457       C  0.11736750  0.92799142  0.66336544    -0.14200
C1458       C  0.13689912  0.92961503  0.68647352    -0.29400
H1459       H  0.09893796  0.94420559  0.66139917     0.14800
H1460       H  0.15482339  0.91293621  0.68862109     0.15400
C1461       C  0.06486088  0.81596759  0.63813942    -0.14200
C1462       C  0.07181674  0.83531142  0.61571587    -0.29400
H1463       H  0.07580827  0.81815586  0.66006038     0.14800
H1464       H  0.06085235  0.83282044  0.59382385     0.15400
C1465       C  0.31813040  0.62930463  0.58749153    -0.14200
C1466       C  0.32257333  0.63218048  0.55755685    -0.29400
H1467       H  0.29530652  0.62522399  0.59590971     0.14800
H1468       H  0.34523643  0.63562831  0.54857336     0.15400
C1469       C  0.40954713  0.68158976  0.63279382    -0.14200
C1470       C  0.43482661  0.68227853  0.61597184    -0.29400
H1471       H  0.40549602  0.69896927  0.64973863     0.14800
H1472       H  0.43898733  0.66486514  0.59911752     0.15400
C1473       C  0.35516493  0.57532506  0.69562261    -0.14200
C1474       C  0.37529273  0.58150986  0.67378605    -0.29400
H1475       H  0.33599028  0.59037612  0.69909547     0.14800
H1476       H  0.39414612  0.56619066  0.66994005     0.15400
C1477       C  0.32376903  0.86914721  0.91379893    -0.14200
C1478       C  0.32462925  0.88517084  0.93941728    -0.29400
H1479       H  0.30365440  0.85620697  0.90780694     0.14800
H1480       H  0.34394944  0.89974970  0.94411439     0.15400
C1481       C  0.41870140  0.82711974  0.86621956    -0.14200
C1482       C  0.44203945  0.82106649  0.88469452    -0.29400
H1483       H  0.41517611  0.81317401  0.84627861     0.14800
H1484       H  0.44548824  0.83472131  0.90485937     0.15400
C1485       C  0.35583319  0.93119301  0.80929027    -0.14200
C1486       C  0.37649092  0.92595569  0.83085972    -0.29400
H1487       H  0.33681754  0.91582138  0.80656960     0.14800
H1488       H  0.39612970  0.94072033  0.83284083     0.15400
C1489       C  0.37986255  0.68733425  0.56719857    -0.14200
C1490       C  0.35964452  0.68045897  0.58875957    -0.29400
H1491       H  0.40096974  0.67488232  0.56571098     0.14800
H1492       H  0.33778878  0.69184026  0.58923284     0.15400
C1493       C  0.37675233  0.82783950  0.91828284    -0.14200
C1494       C  0.35388247  0.81140632  0.93011235    -0.29400
H1495       H  0.39914489  0.82528898  0.92807957     0.14800
H1496       H  0.33138264  0.81222703  0.92026953     0.15400
C1497       C  0.11654253  0.69075112  0.92617133    -0.14200
C1498       C  0.11880722  0.66053288  0.92866007    -0.29400
H1499       H  0.11494239  0.70138448  0.90410870     0.14800
H1500       H  0.12230647  0.65093352  0.95103007     0.15400
C1501       C  0.11412127  0.80521732  0.57332748    -0.14200
C1502       C  0.12128708  0.83465043  0.57092214    -0.29400
H1503       H  0.10830003  0.79518626  0.59491824     0.14800
H1504       H  0.12820060  0.84314286  0.54888025     0.15400
C1505       C  0.19085474  0.56820863  0.86930683    -0.14200
C1506       C  0.16296663  0.56761215  0.88143486    -0.29400
H1507       H  0.19759652  0.58694115  0.85489409     0.14800
H1508       H  0.15599256  0.54860540  0.89538666     0.15400
C1509       C  0.31551078  0.93587718  0.88877265    -0.14200
C1510       C  0.32215821  0.91501259  0.86777940    -0.29400
H1511       H  0.32939390  0.93795995  0.90892642     0.14800
H1512       H  0.30791604  0.91296822  0.84786695     0.15400
C1513       C  0.18481882  0.86745968  0.91345651    -0.14200
C1514       C  0.18968757  0.89048918  0.93259985    -0.29400
H1515       H  0.19800397  0.84678384  0.91552125     0.14800
H1516       H  0.17575099  0.91066997  0.93133100     0.15400
C1517       C  0.07384243  0.80835867  0.85657365    -0.14200
C1518       C  0.08550555  0.82621164  0.87817074    -0.29400
H1519       H  0.08353842  0.80824398  0.83404493     0.14800
H1520       H  0.07568562  0.82537410  0.90065522     0.15400
C1521       C  0.12811580  0.91935269  0.82813922    -0.14200
C1522       C  0.15050736  0.93171479  0.81148563    -0.29400
H1523       H  0.10532279  0.92836295  0.82582805     0.14800
H1524       H  0.17315923  0.92217961  0.81195054     0.15400
C1525       C  0.14007988  0.82112505  0.91511837    -0.14200
C1526       C  0.12292227  0.81944929  0.94005624    -0.29400
H1527       H  0.15780043  0.80448925  0.91116121     0.14800
H1528       H  0.10516973  0.83611019  0.94375829     0.15400
C1529       C  0.18227698  0.91447430  0.86787836    -0.14200
C1530       C  0.17982823  0.94213669  0.87996677    -0.29400
H1531       H  0.20338724  0.90748267  0.85723301     0.14800
H1532       H  0.15969631  0.94832913  0.89274660     0.15400
C1533       C  0.07554256  0.88322507  0.69280435    -0.14200
C1534       C  0.07092808  0.88158681  0.66281333    -0.29400
H1535       H  0.09838764  0.88307783  0.70195884     0.14800
H1536       H  0.04792663  0.87871932  0.65435230     0.15400
C1537       C  0.42458356  0.88302493  0.83122862    -0.14200
C1538       C  0.42970857  0.86524874  0.80726460    -0.29400
H1539       H  0.43874318  0.90279885  0.83513804     0.14800
H1540       H  0.41539431  0.84559746  0.80335019     0.15400
C1541       C  0.06206282  0.88313675  0.82383060    -0.14200
C1542       C  0.08787179  0.86721120  0.82527588    -0.29400
H1543       H  0.05735587  0.90040054  0.84071350     0.14800
H1544       H  0.09331007  0.85138180  0.80724849     0.15400
C1545       C  0.34173988  0.88910892  0.56846921    -0.14200
C1546       C  0.31628103  0.87259539  0.56646849    -0.29400
H1547       H  0.34577150  0.90762361  0.55281994     0.14800
H1548       H  0.31212624  0.85460144  0.58263835     0.15400
C1549       C  0.42867763  0.83445930  0.61660537    -0.14200
C1550       C  0.43246989  0.81246451  0.63717671    -0.29400
H1551       H  0.44279771  0.83466471  0.59644465     0.14800
H1552       H  0.41798725  0.81127630  0.65697068     0.15400
C1553       C  0.38285498  0.92569093  0.66849971    -0.14200
C1554       C  0.35741141  0.93484665  0.68275413    -0.29400
H1555       H  0.40440318  0.93549257  0.67517797     0.14800
H1556       H  0.33576543  0.92460921  0.67693366     0.15400
C1557       C  0.36480319  0.81740591  0.56508978    -0.14200
C1558       C  0.38572406  0.83925575  0.56847320    -0.29400
H1559       H  0.34603787  0.81623731  0.58092967     0.14800
H1560       H  0.40512015  0.84024221  0.55334094     0.15400
C1561       C  0.44678645  0.89139613  0.67723098    -0.14200
C1562       C  0.42344476  0.87323146  0.67029814    -0.29400
H1563       H  0.45099313  0.91155352  0.66381099     0.14800
H1564       H  0.41871816  0.85384639  0.68458200     0.15400
C1565       C  0.18814531  0.93195521  0.63652523    -0.14200
C1566       C  0.16450229  0.92834245  0.61774456    -0.29400
H1567       H  0.19239600  0.91556111  0.65426273     0.14800
H1568       H  0.16007351  0.94524671  0.60049282     0.15400
C1569       C  0.31525669  0.56426201  0.61200550    -0.14200
C1570       C  0.32268293  0.58326611  0.63445336    -0.29400
H1571       H  0.32581956  0.56644717  0.58990895     0.14800
H1572       H  0.31093851  0.58119991  0.65587761     0.15400
C1573       C  0.31166887  0.92928391  0.61490156    -0.14200
C1574       C  0.34177123  0.93277358  0.61725337    -0.29400
H1575       H  0.30162641  0.90697611  0.61291139     0.14800
H1576       H  0.35108145  0.95520702  0.62138733     0.15400
C1577       C  0.32846293  0.63066697  0.92078906    -0.14200
C1578       C  0.31704722  0.60923316  0.93908169    -0.29400
H1579       H  0.31806759  0.65285598  0.92099675     0.14800
H1580       H  0.32684981  0.58671599  0.93920395     0.15400
C1581       C  0.43198255  0.65984119  0.87997256    -0.14200
C1582       C  0.42913999  0.69019020  0.88044082    -0.29400
H1583       H  0.45440946  0.65003202  0.87704020     0.14800
H1584       H  0.40675534  0.70042672  0.88052743     0.15400
C1585       C  0.35379174  0.56390530  0.81840513    -0.14200
C1586       C  0.37720623  0.56957201  0.83699867    -0.29400
H1587       H  0.33353643  0.57783052  0.81914832     0.14800
H1588       H  0.39752914  0.55579986  0.83507654     0.15400
C1589       C  0.38489129  0.66551015  0.92630248    -0.14200
C1590       C  0.36597284  0.68886838  0.92978989    -0.29400
H1591       H  0.40393402  0.66262978  0.94165631     0.14800
H1592       H  0.34760884  0.69228988  0.91379144     0.15400
C1593       C  0.32498679  0.58262029  0.87652338    -0.14200
C1594       C  0.32448628  0.55438729  0.88729150    -0.29400
H1595       H  0.30460451  0.59256359  0.86689511     0.14800
H1596       H  0.34425987  0.54521308  0.89874827     0.15400
C1597       C  0.19272464  0.64375708  0.57044164    -0.14200
C1598       C  0.17144033  0.62292677  0.57675649    -0.29400
H1599       H  0.19476886  0.66392977  0.58433779     0.14800
H1600       H  0.16994855  0.60258635  0.56300344     0.15400
C1601       C  0.08890460  0.68044661  0.63060944    -0.14200
C1602       C  0.05949790  0.67931905  0.63879366    -0.29400
H1603       H  0.09742027  0.70185217  0.62194900     0.14800
H1604       H  0.04910084  0.65849969  0.64646470     0.15400
C1605       C  0.13519137  0.58634232  0.67752251    -0.14200
C1606       C  0.12265982  0.55881383  0.67910252    -0.29400
H1607       H  0.14962245  0.59436539  0.69579180     0.14800
H1608       H  0.10693220  0.55144353  0.66165004     0.15400
C1609       C  0.13293976  0.67589792  0.58238689    -0.14200
C1610       C  0.11285247  0.67788234  0.55972540    -0.29400
H1611       H  0.15094915  0.69257648  0.58434073     0.14800
H1612       H  0.09386308  0.66218383  0.55892159     0.15400
C1613       C  0.16890601  0.57553178  0.62064867    -0.14200
C1614       C  0.18949993  0.56611829  0.64090983    -0.29400
H1615       H  0.16737527  0.56393971  0.59901877     0.14800
H1616       H  0.19205050  0.57797412  0.66227484     0.15400
C1617       C  0.43729541  0.61417728  0.68027496    -0.14200
C1618       C  0.41553756  0.63492078  0.67642436    -0.29400
H1619       H  0.43766300  0.59416648  0.66600988     0.14800
H1620       H  0.41549358  0.65514202  0.69045953     0.15400
C1621       C  0.08256671  0.62562746  0.82541086    -0.14200
C1622       C  0.05856021  0.60809594  0.81939578    -0.29400
H1623       H  0.08878883  0.64351107  0.80977706     0.14800
H1624       H  0.05318334  0.58920765  0.83417771     0.15400
C1625       C  0.42776467  0.60968758  0.83651603    -0.14200
C1626       C  0.43299219  0.62959093  0.81424937    -0.29400
H1627       H  0.43978236  0.58822606  0.83669437     0.14800
H1628       H  0.42113257  0.65116242  0.81429133     0.15400
C1629       C  0.08884776  0.63306937  0.67890604    -0.14200
C1630       C  0.06848876  0.61113752  0.68524926    -0.29400
H1631       H  0.08790436  0.65446968  0.69101336     0.14800
H1632       H  0.06854160  0.59028012  0.67226152     0.15400
O1633       O  0.96835604  0.08491735  0.21447132    -0.70800
O1634       O  0.52804491  0.08976588  0.28320373    -0.71700
O1635       O  0.96362688  0.08621807  0.27850756    -0.60400
O1636       O  0.52828333  0.08471905  0.21900090    -0.68800
O1637       O  0.53353849  0.13453606  0.21497631    -0.68300
O1638       O  0.96887000  0.13622562  0.27997750    -0.59600
O1639       O  0.53538288  0.13932741  0.27890596    -0.72100
O1640       O  0.96959194  0.13518275  0.21558242    -0.70900
Cu1641     Cu  0.49618935  0.08926162  0.25156736     1.04600
Cu1642     Cu  0.00174761  0.13521278  0.24845111     1.04300
C1643       C  0.95938928  0.11040122  0.20442711     0.95400
C1644       C  0.54194632  0.11379171  0.29100663     0.94600
C1645       C  0.95536978  0.11213693  0.28848804     0.86700
C1646       C  0.54068944  0.10782274  0.20664766     0.93000
C1647       C  0.64515493  0.09828390  0.12169929     0.04500
C1648       C  0.62547199  0.10092142  0.14692981     0.04500
C1649       C  0.60294508  0.12381772  0.14744910     0.04500
C1650       C  0.60167789  0.14528977  0.12369471     0.04500
C1651       C  0.62331188  0.14461029  0.10012330     0.04500
C1652       C  0.64439611  0.12035486  0.09847679     0.04500
C1653       C  0.90296139  0.12012300  0.35825358     0.04500
C1654       C  0.87765610  0.10021801  0.35437812     0.04500
C1655       C  0.85166220  0.10366069  0.37321326     0.04500
C1656       C  0.85152105  0.12543117  0.39654907     0.04500
C1657       C  0.87721159  0.14364504  0.40168231     0.04500
C1658       C  0.90258643  0.14176882  0.38214887     0.04500
O1659       O  0.72414357  0.46603416  0.16021088    -0.70800
O1660       O  0.78807262  0.03096561  0.14726452    -0.71700
O1661       O  0.72482499  0.03197069  0.15853240    -0.60400
O1662       O  0.78728326  0.46531222  0.14936714    -0.68800
O1663       O  0.77745824  0.46400553  0.10003438    -0.68300
O1664       O  0.71668980  0.03203084  0.10895844    -0.59600
O1665       O  0.78079864  0.02900996  0.09756253    -0.72100
O1666       O  0.71484574  0.46710728  0.11088134    -0.70900
Cu1667     Cu  0.75619865  0.99922091  0.15487530     1.04600
Cu1668     Cu  0.74744787  0.49793584  0.10356782     1.04300
C1669       C  0.70987431  0.45596638  0.13709081     0.95400
C1670       C  0.79491391  0.03956471  0.12051994     0.94600
C1671       C  0.71099247  0.04237630  0.13540665     0.86700
C1672       C  0.79144815  0.45385398  0.12316507     0.93000
C1673       C  0.86206359  0.40384294  0.12214708     0.04500
C1674       C  0.86211947  0.38237826  0.09828059     0.04500
C1675       C  0.88415026  0.35897321  0.09757576     0.04500
C1676       C  0.90516369  0.35626711  0.12174649     0.04500
C1677       C  0.90361267  0.37654193  0.14658338     0.04500
C1678       C  0.88251330  0.40076080  0.14670163     0.04500
O1679       O  0.53231988  0.35668373  0.28839883    -0.70800
O1680       O  0.97237848  0.36142685  0.21769788    -0.71700
O1681       O  0.53576132  0.34274946  0.22574464    -0.60400
O1682       O  0.96766517  0.36566012  0.28185530    -0.68800
O1683       O  0.97085250  0.41553010  0.27615969    -0.68300
O1684       O  0.53611068  0.39195943  0.21557597    -0.59600
O1685       O  0.98090775  0.41078985  0.21325720    -0.72100
O1686       O  0.53065074  0.40597908  0.27880278    -0.70900
Cu1687     Cu  0.00180330  0.35814343  0.25336157     1.04600
Cu1688     Cu  0.50145158  0.40008853  0.24425945     1.04300
C1689       C  0.54074877  0.38378567  0.29430116     0.95400
C1690       C  0.96781886  0.38677675  0.20426122     0.94600
C1691       C  0.54654792  0.36528366  0.21123025     0.86700
C1692       C  0.95787755  0.39219967  0.28748256     0.93000
C1693       C  0.60516956  0.35168569  0.37662926     0.04500
C1694       C  0.60479010  0.37395334  0.35350806     0.04500
C1695       C  0.62826182  0.39591595  0.35171712     0.04500
C1696       C  0.65356628  0.39381558  0.37141027     0.04500
C1697       C  0.65464965  0.37098200  0.39386495     0.04500
C1698       C  0.63039238  0.35009109  0.39680966     0.04500
O1699       O  0.72447686  0.03092312  0.34489698    -0.70800
O1700       O  0.78375456  0.46440703  0.35962589    -0.71700
O1701       O  0.71941902  0.46839180  0.35332547    -0.60400
O1702       O  0.78854632  0.02457402  0.35084645    -0.68800
O1703       O  0.78438780  0.03144844  0.40053511    -0.68300
O1704       O  0.71492889  0.47415806  0.40308933    -0.59600
O1705       O  0.78004304  0.47044858  0.40941942    -0.72100
O1706       O  0.71984290  0.03740831  0.39453901    -0.70900
Cu1707     Cu  0.75445466  0.49787630  0.35163466     1.04600
Cu1708     Cu  0.74896987  0.00340971  0.40340132     1.04300
C1709       C  0.71270025  0.04464052  0.36744252     0.95400
C1710       C  0.79234128  0.45790698  0.38641584     0.94600
C1711       C  0.70590571  0.46251572  0.37824939     0.86700
C1712       C  0.79800342  0.03626926  0.37555164     0.93000
O1713       O  0.59223830  0.28151607  0.47232083    -0.70800
O1714       O  0.60172715  0.21153080  0.02751272    -0.71700
O1715       O  0.60812087  0.27532309  0.03741102    -0.60400
O1716       O  0.60165570  0.21799872  0.46219427    -0.68800
O1717       O  0.65157264  0.22474763  0.46433111    -0.68300
O1718       O  0.65779975  0.27103900  0.03024457    -0.59600
O1719       O  0.65140587  0.20730818  0.01973831    -0.72100
O1720       O  0.64229957  0.28738875  0.47178267    -0.70900
Cu1721     Cu  0.59874613  0.24838747  0.00150043     1.04600
Cu1722     Cu  0.64842284  0.25219932  0.50017675     1.04300
C1723       C  0.61580415  0.29550522  0.46308536     0.95400
C1724       C  0.62670672  0.19746908  0.03128460     0.94600
C1725       C  0.63540953  0.28194937  0.04497540     0.86700
C1726       C  0.62834800  0.21291923  0.45182162     0.93000
O1727       O  0.89302733  0.28803107  0.02831124    -0.70800
O1728       O  0.90176346  0.22660451  0.46494744    -0.71700
O1729       O  0.88921765  0.28813690  0.46905541    -0.60400
O1730       O  0.90182281  0.22389909  0.03059315    -0.68800
O1731       O  0.85206904  0.21789135  0.03575358    -0.68300
O1732       O  0.84008530  0.27698796  0.46742407    -0.59600
O1733       O  0.85270033  0.21477175  0.46646578    -0.72100
O1734       O  0.84337362  0.28094422  0.03322295    -0.70900
Cu1735     Cu  0.89731571  0.25556614  0.49933621     1.04600
Cu1736     Cu  0.84283416  0.24784381  0.00253609     1.04300
C1737       C  0.86764238  0.29474731  0.04076778     0.95400
C1738       C  0.87900519  0.21206406  0.45462788     0.94600
C1739       C  0.86288880  0.29186407  0.45753325     0.86700
C1740       C  0.87924116  0.21165358  0.04391609     0.93000
C1741       C  0.85222925  0.39614301  0.37364236     0.04500
C1742       C  0.87721454  0.40058408  0.35382967     0.04500
C1743       C  0.90186545  0.37973508  0.35395807     0.04500
C1744       C  0.90124083  0.35493200  0.37443506     0.04500
C1745       C  0.87787906  0.35269083  0.39656250     0.04500
C1746       C  0.85308169  0.37308126  0.39569100     0.04500
O1747       O  0.88189539  0.46969339  0.28282075    -0.70800
O1748       O  0.88148368  0.03453813  0.21761647    -0.71700
O1749       O  0.88301218  0.03252279  0.28170516    -0.60400
O1750       O  0.88189208  0.46934295  0.21842735    -0.68800
O1751       O  0.83155255  0.46748201  0.21836947    -0.68300
O1752       O  0.83260351  0.03124817  0.28200378    -0.59600
O1753       O  0.83109709  0.03327439  0.21918942    -0.72100
O1754       O  0.83152552  0.46734885  0.28177397    -0.70900
Cu1755     Cu  0.88480964  0.00106032  0.24885705     1.04600
Cu1756     Cu  0.82835253  0.49969323  0.25058330     1.04300
C1757       C  0.85692955  0.45798754  0.29187559     0.95400
C1758       C  0.85563106  0.04505684  0.20952191     0.94600
C1759       C  0.85761780  0.04242100  0.29151760     0.86700
C1760       C  0.85711327  0.45778874  0.20869070     0.93000
C1761       C  0.84655160  0.10899839  0.12977937     0.04500
C1762       C  0.87142127  0.10683963  0.15006552     0.04500
C1763       C  0.89302724  0.13069946  0.15161041     0.04500
C1764       C  0.89046577  0.15597314  0.13195382     0.04500
C1765       C  0.86631587  0.15729265  0.11077273     0.04500
C1766       C  0.84430034  0.13398013  0.10993631     0.04500
O1767       O  0.97471187  0.20868127  0.10541062    -0.70800
O1768       O  0.52775459  0.27960645  0.09424416    -0.71700
O1769       O  0.53562495  0.21634517  0.10689598    -0.60400
O1770       O  0.96551771  0.27063796  0.09372637    -0.68800
O1771       O  0.96574489  0.28193991  0.14276205    -0.73100
O1772       O  0.53423453  0.22521177  0.15634381    -0.59600
O1773       O  0.52912095  0.28774944  0.14385657    -0.72100
O1774       O  0.97065165  0.21896873  0.15448976    -0.70900
Cu1775     Cu  0.49993055  0.24409194  0.09892198     1.04600
Cu1776     Cu  0.00023494  0.25415169  0.15140895     1.04300
C1777       C  0.96357070  0.20297198  0.13134803     0.95400
C1778       C  0.53739713  0.29456664  0.11698298     0.94600
C1779       C  0.54576035  0.21158356  0.13364869     0.86700
C1780       C  0.95447811  0.28487831  0.11635070     0.93000
C1781       C  0.64852961  0.39527162  0.12024153     0.04500
C1782       C  0.62491257  0.39819979  0.14174650     0.04500
C1783       C  0.60310093  0.37494554  0.14524612     0.04500
C1784       C  0.60386425  0.34947848  0.12584372     0.04500
C1785       C  0.62608420  0.34725436  0.10280108     0.04500
C1786       C  0.64911309  0.36963730  0.10069300     0.04500
O1787       O  0.60327558  0.46135211  0.22333958    -0.70800
O1788       O  0.61163817  0.03209573  0.28090236    -0.71700
O1789       O  0.59963786  0.02443585  0.21735790    -0.60400
O1790       O  0.61523024  0.46630762  0.28517004    -0.68800
O1791       O  0.66452667  0.46629322  0.27471903    -0.68300
O1792       O  0.64937236  0.02705787  0.20938106    -0.59600
O1793       O  0.66125158  0.03220853  0.27212440    -0.72100
O1794       O  0.65250256  0.46398757  0.21241540    -0.70900
Cu1795     Cu  0.60481288  0.99642560  0.25298370     1.04600
Cu1796     Cu  0.65934911  0.49764804  0.24216903     1.04300
C1797       C  0.62652864  0.45148481  0.20933963     0.95400
C1798       C  0.63804282  0.04335271  0.28538277     0.94600
C1799       C  0.62226341  0.03437621  0.20225251     0.86700
C1800       C  0.64194277  0.45588023  0.28954029     0.93000
C1801       C  0.60833978  0.12758990  0.34552153     0.04500
C1802       C  0.60801962  0.15065244  0.36788055     0.04500
C1803       C  0.62495031  0.14710487  0.39480385     0.04500
C1804       C  0.64432162  0.12182773  0.39827240     0.04500
C1805       C  0.64559864  0.09933846  0.37549587     0.04500
C1806       C  0.62675208  0.10153139  0.34961550     0.04500
O1807       O  0.96896422  0.22214018  0.35141954    -0.70800
O1808       O  0.53704282  0.28098087  0.35570251    -0.71700
O1809       O  0.52971410  0.21815999  0.34315862    -0.60400
O1810       O  0.97396519  0.28635976  0.35921198    -0.68800
O1811       O  0.97362109  0.28193407  0.40921217    -0.68300
O1812       O  0.53128232  0.20817650  0.39244570    -0.59600
O1813       O  0.54014599  0.27000751  0.40464951    -0.72100
O1814       O  0.96437804  0.21726868  0.40119770    -0.70900
Cu1815     Cu  0.50122803  0.25335588  0.34965588     1.04600
Cu1816     Cu  0.00040145  0.24543804  0.40870737     1.04300
C1817       C  0.95652293  0.20973627  0.37423814     0.95400
C1818       C  0.55034598  0.28360385  0.38124966     0.94600
C1819       C  0.53906902  0.20216358  0.36535617     0.86700
C1820       C  0.96504091  0.29553090  0.38530363     0.93000
O1821       O  0.71432417  0.10765177  0.03185912    -0.70800
O1822       O  0.77382840  0.09215353  0.46681972    -0.71700
O1823       O  0.77765881  0.09615817  0.03245976    -0.60400
O1824       O  0.71101510  0.10722816  0.46833251    -0.68800
O1825       O  0.72278639  0.15609343  0.46689086    -0.68300
O1826       O  0.78579534  0.14580443  0.03184899    -0.59600
O1827       O  0.78509421  0.14116103  0.46571309    -0.72100
O1828       O  0.72287544  0.15718906  0.03078612    -0.70900
Cu1829     Cu  0.74313180  0.09864079  0.49958967     1.04600
Cu1830     Cu  0.75495859  0.15225695  0.99891920     1.04300
C1831       C  0.70884824  0.13434691  0.04160739     0.95400
C1832       C  0.78917367  0.11415842  0.45608676     0.94600
C1833       C  0.79156314  0.11949025  0.04239686     0.86700
C1834       C  0.70689190  0.13378511  0.45758303     0.93000
O1835       O  0.72311392  0.41829395  0.46480259    -0.70800
O1836       O  0.78646356  0.40040839  0.03725470    -0.71700
O1837       O  0.78825680  0.41670450  0.46848840    -0.60400
O1838       O  0.72186792  0.40696483  0.03110316    -0.68800
O1839       O  0.71724404  0.35690021  0.02880113    -0.68300
O1840       O  0.78618543  0.36648221  0.47046228    -0.59600
O1841       O  0.78120189  0.35044928  0.03417976    -0.72100
O1842       O  0.72130648  0.36812516  0.46758015    -0.70900
Cu1843     Cu  0.75735872  0.40715750  0.00293272     1.04600
Cu1844     Cu  0.75207033  0.35365564  0.99951209     1.04300
C1845       C  0.71206006  0.39303455  0.45608975     0.95400
C1846       C  0.79330460  0.37378440  0.04623164     0.94600
C1847       C  0.79851636  0.39078778  0.46075832     0.86700
C1848       C  0.70802667  0.38264234  0.03830905     0.93000
C1849       C  0.66351271  0.11827086  0.42578335    -0.14200
C1850       C  0.68441363  0.13899941  0.43346453    -0.29400
H1851       H  0.66265706  0.09688909  0.43786259     0.14800
H1852       H  0.68612009  0.15988414  0.42068283     0.15400
C1853       C  0.55854927  0.17598604  0.36018791    -0.14200
C1854       C  0.58852562  0.17798853  0.36475261    -0.29400
H1855       H  0.54763969  0.15414516  0.35740297     0.14800
H1856       H  0.59829599  0.19989131  0.37040330     0.15400
C1857       C  0.64202494  0.06977606  0.30559620    -0.14200
C1858       C  0.62334134  0.07499335  0.32900159    -0.29400
H1859       H  0.66104486  0.08486524  0.30153928     0.14800
H1860       H  0.60493610  0.05928757  0.33357258     0.15400
C1861       C  0.67474805  0.36520891  0.07926573    -0.14200
C1862       C  0.68066971  0.38491084  0.05707977    -0.29400
H1863       H  0.68970847  0.34600453  0.08267817     0.14800
H1864       H  0.66585945  0.40421586  0.05354928     0.15400
C1865       C  0.62335545  0.42602549  0.16058992    -0.14200
C1866       C  0.62365141  0.42439648  0.19074851    -0.29400
H1867       H  0.62542315  0.44796746  0.14964836     0.14800
H1868       H  0.62305881  0.40263416  0.20213291     0.15400
C1869       C  0.55835852  0.31985469  0.11192091    -0.14200
C1870       C  0.58188243  0.32448412  0.13047892    -0.29400
H1871       H  0.55528689  0.33395224  0.09204660     0.14800
H1872       H  0.58535768  0.30950654  0.14962349     0.15400
C1873       C  0.81884599  0.13622227  0.08785954    -0.14200
C1874       C  0.81487115  0.11569437  0.06585052    -0.29400
H1875       H  0.80462014  0.15629616  0.08834190     0.14800
H1876       H  0.82914337  0.09574448  0.06482173     0.15400
C1877       C  0.91234151  0.18174933  0.13401721    -0.14200
C1878       C  0.94251162  0.17743822  0.13401787    -0.29400
H1879       H  0.90354078  0.20470648  0.13281797     0.14800
H1880       H  0.95175142  0.15475843  0.13188186     0.15400
C1881       C  0.85322645  0.07188026  0.18998014    -0.14200
C1882       C  0.87469793  0.07980238  0.17007987    -0.29400
H1883       H  0.83275153  0.08540232  0.19191239     0.14800
H1884       H  0.89492968  0.06599397  0.16819400     0.15400
C1885       C  0.82753739  0.37061949  0.41764503    -0.14200
C1886       C  0.82559202  0.38937180  0.44138657    -0.29400
H1887       H  0.80894765  0.35526797  0.41257225     0.14800
H1888       H  0.84350649  0.40580714  0.44535165     0.15400
C1889       C  0.92273262  0.32908311  0.36948938    -0.14200
C1890       C  0.94500039  0.32217957  0.38898318    -0.29400
H1891       H  0.92045964  0.31612389  0.34870446     0.14800
H1892       H  0.94753167  0.33547183  0.40950177     0.15400
C1893       C  0.85665293  0.43240290  0.31300194    -0.14200
C1894       C  0.87797219  0.42789377  0.33417419    -0.29400
H1895       H  0.83812752  0.41638476  0.31064739     0.14800
H1896       H  0.89723737  0.44318450  0.33580733     0.15400
C1897       C  0.88485599  0.18981412  0.06862712    -0.14200
C1898       C  0.86326343  0.18290186  0.08894102    -0.29400
H1899       H  0.90684331  0.17874928  0.06974309     0.14800
H1900       H  0.84138935  0.19411416  0.08740169     0.15400
C1901       C  0.88114918  0.33078323  0.42203422    -0.14200
C1902       C  0.85873593  0.31258208  0.43176663    -0.29400
H1903       H  0.90279936  0.33011377  0.43362042     0.14800
H1904       H  0.83716983  0.31192395  0.41997691     0.15400
C1905       C  0.63309371  0.19366913  0.42494617    -0.14200
C1906       C  0.61859581  0.16726402  0.42114927    -0.29400
H1907       H  0.65072659  0.20015159  0.40903232     0.14800
H1908       H  0.60214636  0.15973826  0.43783476     0.15400
C1909       C  0.64145990  0.30282658  0.07054221    -0.14200
C1910       C  0.62148982  0.32449798  0.07811710    -0.29400
H1911       H  0.66299467  0.30115260  0.08231799     0.14800
H1912       H  0.60032230  0.32580412  0.06564142     0.15400
C1913       C  0.69070028  0.06903809  0.36182085    -0.14200
C1914       C  0.66643957  0.07317336  0.37968458    -0.29400
H1915       H  0.69425598  0.08356978  0.34237605     0.14800
H1916       H  0.66318435  0.05869853  0.39927701     0.15400
C1917       C  0.81818219  0.43740728  0.39075600    -0.14200
C1918       C  0.82461099  0.41538168  0.37091913    -0.29400
H1919       H  0.83309316  0.44160940  0.40980859     0.14800
H1920       H  0.80930495  0.41120801  0.35213260     0.15400
C1921       C  0.68059458  0.36971981  0.41572702    -0.14200
C1922       C  0.68756630  0.39345734  0.43342472    -0.29400
H1923       H  0.69300809  0.34865304  0.41829996     0.14800
H1924       H  0.67452565  0.41418028  0.43153821     0.15400
C1925       C  0.57835740  0.30168922  0.38330364    -0.14200
C1926       C  0.57768863  0.33175566  0.37922021    -0.29400
H1927       H  0.59963294  0.28982940  0.38663422     0.14800
H1928       H  0.55575370  0.34217725  0.37484822     0.15400
C1929       C  0.62510471  0.42188533  0.33034441    -0.14200
C1930       C  0.64678988  0.43066069  0.31086075    -0.29400
H1931       H  0.60407486  0.43450535  0.33092688     0.14800
H1932       H  0.66815120  0.41849054  0.30967821     0.15400
C1933       C  0.63318823  0.32613324  0.42036397    -0.14200
C1934       C  0.61208963  0.32069593  0.44153940    -0.29400
H1935       H  0.65394795  0.31287236  0.42054120     0.14800
H1936       H  0.59093065  0.33330213  0.44150424     0.15400
C1937       C  0.67987162  0.41459533  0.36783866    -0.14200
C1938       C  0.67904360  0.44286109  0.37869646    -0.29400
H1939       H  0.70068695  0.40575589  0.35804718     0.14800
H1940       H  0.65904921  0.45062217  0.39082909     0.15400
C1941       C  0.57131912  0.36003247  0.18940199    -0.14200
C1942       C  0.57740704  0.37946382  0.16683593    -0.29400
H1943       H  0.58469458  0.33957343  0.19187508     0.14800
H1944       H  0.56457983  0.40040194  0.16517493     0.15400
C1945       C  0.92956927  0.38310828  0.33419539    -0.14200
C1946       C  0.93054326  0.39528855  0.30628285    -0.29400
H1947       H  0.95054877  0.37322688  0.34257033     0.14800
H1948       H  0.91074713  0.40457787  0.29531644     0.15400
C1949       C  0.56202360  0.38989489  0.31942466    -0.14200
C1950       C  0.58306960  0.36960094  0.32780213    -0.29400
H1951       H  0.56018883  0.41141721  0.33106517     0.14800
H1952       H  0.58359482  0.34774069  0.31648366     0.15400
C1953       C  0.84066685  0.38632314  0.07268517    -0.14200
C1954       C  0.81530223  0.36961819  0.07076234    -0.29400
H1955       H  0.84500206  0.40423925  0.05642797     0.14800
H1956       H  0.81087818  0.35200925  0.08728782     0.15400
C1957       C  0.93081030  0.33413983  0.12108840    -0.14200
C1958       C  0.92856441  0.30515254  0.11229898    -0.29400
H1959       H  0.95247738  0.34169774  0.13019731     0.14800
H1960       H  0.90758078  0.29563792  0.10383581     0.15400
C1961       C  0.88284279  0.42355342  0.17199643    -0.14200
C1962       C  0.85742602  0.43298155  0.18612827    -0.29400
H1963       H  0.90445485  0.43326097  0.17864752     0.14800
H1964       H  0.83580932  0.42260687  0.18045723     0.15400
C1965       C  0.86552299  0.31758065  0.06504764    -0.14200
C1966       C  0.88667222  0.33875960  0.07060080    -0.29400
H1967       H  0.84597491  0.31601290  0.07984126     0.14800
H1968       H  0.90726064  0.33951584  0.05710426     0.15400
C1969       C  0.94759456  0.38959882  0.17797274    -0.14200
C1970       C  0.92381593  0.37146351  0.17307865    -0.29400
H1971       H  0.95117533  0.40881426  0.16303314     0.14800
H1972       H  0.91981504  0.35196930  0.18749560     0.15400
C1973       C  0.68803455  0.43075029  0.14073502    -0.14200
C1974       C  0.67181693  0.41987965  0.11725402    -0.29400
H1975       H  0.68545133  0.42072804  0.16301502     0.14800
H1976       H  0.67496273  0.43018983  0.09530304     0.15400
C1977       C  0.81973985  0.06144384  0.11606997    -0.14200
C1978       C  0.82087677  0.08720428  0.13206783    -0.29400
H1979       H  0.83703673  0.05653252  0.09927793     0.14800
H1980       H  0.80272879  0.09247047  0.14786210     0.15400
C1981       C  0.81149642  0.42772110  0.11990349    -0.14200
C1982       C  0.84170795  0.43070434  0.12087840    -0.29400
H1983       H  0.80110750  0.40549042  0.11863017     0.14800
H1984       H  0.85156290  0.45305604  0.12409129     0.15400
C1985       C  0.82432844  0.13013260  0.41607230    -0.14200
C1986       C  0.81246795  0.10796489  0.43309747    -0.29400
H1987       H  0.81634415  0.15322444  0.41907146     0.14800
H1988       H  0.82099667  0.08499884  0.43118613     0.15400
C1989       C  0.92848825  0.16287473  0.38721956    -0.14200
C1990       C  0.93338160  0.18621691  0.36842443    -0.29400
H1991       H  0.94087011  0.16149895  0.40843258     0.14800
H1992       H  0.92068458  0.18744043  0.34737256     0.15400
C1993       C  0.85655595  0.06786556  0.31301392    -0.14200
C1994       C  0.87939001  0.07464580  0.33209462    -0.29400
H1995       H  0.83601100  0.08139107  0.31305239     0.14800
H1996       H  0.90028669  0.06163793  0.33098221     0.15400
C1997       C  0.87729144  0.16335931  0.42907031    -0.14200
C1998       C  0.88287701  0.19304181  0.42791875    -0.29400
H1999       H  0.86970343  0.15357456  0.45034626     0.14800
H2000       H  0.88921511  0.20398533  0.40692889     0.15400
C2001       C  0.82441888  0.08425215  0.36956748    -0.14200
C2002       C  0.82552564  0.05467110  0.37565298    -0.29400
H2003       H  0.80275769  0.09493258  0.36460892     0.14800
H2004       H  0.84667555  0.04426547  0.38280178     0.15400
C2005       C  0.68654577  0.13889901  0.06596982    -0.14200
C2006       C  0.66623129  0.11738104  0.07298721    -0.29400
H2007       H  0.68668717  0.16022935  0.07823019     0.14800
H2008       H  0.66651663  0.09606868  0.06070688     0.15400
C2009       C  0.57544037  0.16635595  0.12048176    -0.14200
C2010       C  0.57086968  0.19009565  0.13884056    -0.29400
H2011       H  0.56118515  0.16358339  0.10059684     0.14800
H2012       H  0.58535515  0.19343432  0.15844032     0.15400
C2013       C  0.62998585  0.08114354  0.17369621    -0.14200
C2014       C  0.61694578  0.05385185  0.17586881    -0.29400
H2015       H  0.64448504  0.08934906  0.19183014     0.14800
H2016       H  0.60135970  0.04612890  0.15844675     0.15400
C2017       C  0.62434359  0.17126930  0.07937134    -0.14200
C2018       C  0.62683198  0.16963292  0.04924925    -0.29400
H2019       H  0.62139937  0.19351051  0.08957465     0.14800
H2020       H  0.62871148  0.14805121  0.03766764     0.15400
C2021       C  0.66690337  0.07248154  0.11898684    -0.14200
C2022       C  0.68855031  0.06679589  0.13959886    -0.29400
H2023       H  0.66612695  0.05899776  0.09843258     0.14800
H2024       H  0.68991611  0.08034386  0.16006066     0.15400
C2025       C  0.93738522  0.11039580  0.17941518    -0.14200
C2026       C  0.91584218  0.13157614  0.17654251    -0.29400
H2027       H  0.93830585  0.09168986  0.16350638     0.14800
H2028       H  0.91554803  0.15078546  0.19192939     0.15400
C2029       C  0.58807039  0.13040428  0.31870327    -0.14200
C2030       C  0.56500031  0.11099581  0.31486826    -0.29400
H2031       H  0.58992543  0.15030260  0.30439938     0.14800
H2032       H  0.56269721  0.09190911  0.33016334     0.15400
C2033       C  0.93046782  0.11799435  0.33830564    -0.14200
C2034       C  0.92852814  0.11449954  0.30813169    -0.29400
H2035       H  0.95276541  0.12054792  0.34852410     0.14800
H2036       H  0.90653706  0.11362410  0.29712214     0.15400
C2037       C  0.58131656  0.12644574  0.17323262    -0.14200
C2038       C  0.56298054  0.10373404  0.18207615    -0.29400
H2039       H  0.57971535  0.14817869  0.18454956     0.14800
H2040       H  0.56357208  0.08212142  0.17049537     0.15400
O2041       O  0.96735318  0.08969529  0.71651362    -0.70800
O2042       O  0.53245830  0.09862421  0.78392144    -0.71700
O2043       O  0.96334750  0.09561942  0.78132612    -0.60400
O2044       O  0.53137851  0.08887631  0.72010803    -0.68800
O2045       O  0.53236873  0.13863028  0.71287941    -0.68300
O2046       O  0.96840078  0.14545254  0.77699474    -0.59600
O2047       O  0.53454181  0.14818774  0.77555916    -0.72100
O2048       O  0.97077298  0.13971439  0.71286037    -0.70900
Cu2049     Cu  0.49978778  0.09294454  0.75308365     1.04600
Cu2050     Cu  0.00190259  0.14149118  0.74707680     1.04300
C2051       C  0.95961237  0.11439575  0.70391428     0.95400
C2052       C  0.54410263  0.12455627  0.78918847     0.94600
C2053       C  0.95592763  0.12256655  0.78927431     0.86700
C2054       C  0.54180686  0.11211907  0.70634210     0.93000
C2055       C  0.64890685  0.10188563  0.62571262     0.04500
C2056       C  0.63024564  0.10525483  0.65156713     0.04500
C2057       C  0.60806681  0.12836089  0.65250080     0.04500
C2058       C  0.60696863  0.15023590  0.62906378     0.04500
C2059       C  0.62846708  0.14931501  0.60532354     0.04500
C2060       C  0.64824350  0.12414441  0.60271675     0.04500
C2061       C  0.90442177  0.11489776  0.85888542     0.04500
C2062       C  0.87809082  0.09659527  0.85749001     0.04500
C2063       C  0.85341346  0.10267530  0.87706512     0.04500
C2064       C  0.85549118  0.12602967  0.89885431     0.04500
C2065       C  0.88242883  0.14357381  0.90113406     0.04500
C2066       C  0.90643057  0.13896932  0.88016432     0.04500
O2067       O  0.72010153  0.46722541  0.66020406    -0.70800
O2068       O  0.78751420  0.02946622  0.64694919    -0.71700
O2069       O  0.72453435  0.02918291  0.65865535    -0.60400
O2070       O  0.78308616  0.46285327  0.65505561    -0.68800
O2071       O  0.77930625  0.46460111  0.60492387    -0.68300
O2072       O  0.71651762  0.03235892  0.60915666    -0.59600
O2073       O  0.78034187  0.02894440  0.59717533    -0.72100
O2074       O  0.71552684  0.46911653  0.61017193    -0.70900
Cu2075     Cu  0.75613296  0.99706169  0.65314014     1.04600
Cu2076     Cu  0.74934275  0.49924566  0.60653530     1.04300
C2077       C  0.70778549  0.45801299  0.63570074     0.95400
C2078       C  0.79453074  0.03861993  0.62044479     0.94600
C2079       C  0.71116056  0.04137372  0.63616404     0.86700
C2080       C  0.78984923  0.45248242  0.62899649     0.93000
C2081       C  0.85884085  0.40032019  0.62361064     0.04500
C2082       C  0.85541581  0.37638413  0.60228702     0.04500
C2083       C  0.87634267  0.35209529  0.60251309     0.04500
C2084       C  0.89797895  0.34976020  0.62599846     0.04500
C2085       C  0.90057575  0.37278029  0.64795597     0.04500
C2086       C  0.88184784  0.39872041  0.64612614     0.04500
O2087       O  0.53610999  0.35461548  0.78702205    -0.70800
O2088       O  0.97460046  0.35675747  0.71334040    -0.71700
O2089       O  0.54442748  0.35360280  0.72342648    -0.60400
O2090       O  0.96922414  0.34840582  0.77633959    -0.68800
O2091       O  0.96518258  0.39825638  0.78161323    -0.68300
O2092       O  0.53482040  0.40289872  0.72024009    -0.59600
O2093       O  0.97522967  0.40682399  0.71810154    -0.72100
O2094       O  0.52832013  0.40421720  0.78500259    -0.70900
Cu2095     Cu  0.00414328  0.35200743  0.74816837     1.04600
Cu2096     Cu  0.49976853  0.39993154  0.74981216     1.04300
C2097       C  0.54101983  0.38135629  0.79723716     0.95400
C2098       C  0.96614399  0.38303966  0.70450172     0.94600
C2099       C  0.55027772  0.37960881  0.71251565     0.86700
C2100       C  0.95587057  0.37138414  0.78749704     0.93000
C2101       C  0.60886015  0.35039177  0.87705272     0.04500
C2102       C  0.60732289  0.37252209  0.85385712     0.04500
C2103       C  0.62984510  0.39554685  0.85217110     0.04500
C2104       C  0.65487051  0.39499411  0.87247096     0.04500
C2105       C  0.65754262  0.37134525  0.89385130     0.04500
C2106       C  0.63436248  0.34948555  0.89647031     0.04500
O2107       O  0.72497151  0.03318412  0.85055261    -0.70800
O2108       O  0.78251250  0.46610081  0.86513970    -0.71700
O2109       O  0.71848247  0.47121204  0.86118109    -0.60400
O2110       O  0.78856825  0.02827421  0.85880050    -0.68800
O2111       O  0.78307517  0.02979885  0.90878907    -0.68300
O2112       O  0.71430590  0.47494599  0.91115015    -0.59600
O2113       O  0.77896071  0.46704060  0.91528444    -0.72100
O2114       O  0.71873119  0.03539937  0.90042004    -0.70900
Cu2115     Cu  0.75339234  0.50048729  0.86041088     1.04600
Cu2116     Cu  0.74784883  0.00116216  0.90760891     1.04300
C2117       C  0.71236804  0.04476373  0.87380790     0.95400
C2118       C  0.79041712  0.45613222  0.89109330     0.94600
C2119       C  0.70509208  0.46432892  0.88586757     0.86700
C2120       C  0.79711371  0.03763424  0.88480959     0.93000
O2121       O  0.59848269  0.28482361  0.97508708    -0.70800
O2122       O  0.60030603  0.20880289  0.52546440    -0.71700
O2123       O  0.59287700  0.27207384  0.53617963    -0.60400
O2124       O  0.59361615  0.22139256  0.96467424    -0.68800
O2125       O  0.64352219  0.21838257  0.95785373    -0.68300
O2126       O  0.64266248  0.28001132  0.53555732    -0.59600
O2127       O  0.65016279  0.21583619  0.52844205    -0.72100
O2128       O  0.64815600  0.28168395  0.96700183    -0.70900
Cu2129     Cu  0.59500310  0.24491585  0.49903791     1.04600
Cu2130     Cu  0.65198604  0.24459130  0.99353360     1.04300
C2131       C  0.62253633  0.29460821  0.96246768     0.95400
C2132       C  0.62624464  0.20078502  0.53527310     0.94600
C2133       C  0.61657692  0.28490922  0.54704929     0.86700
C2134       C  0.61659640  0.21123781  0.95014258     0.93000
O2135       O  0.88926824  0.28447572  0.53347776    -0.70800
O2136       O  0.89507477  0.22024835  0.96611978    -0.71700
O2137       O  0.88722666  0.28369070  0.96381674    -0.60400
O2138       O  0.90208449  0.22153114  0.52918807    -0.68800
O2139       O  0.85232749  0.21340484  0.53079671    -0.68300
O2140       O  0.83741567  0.27791073  0.96880606    -0.59600
O2141       O  0.84510671  0.21557569  0.97122472    -0.72100
O2142       O  0.83965259  0.27560906  0.53260552    -0.70900
Cu2143     Cu  0.89609558  0.25420032  0.99712425     1.04600
Cu2144     Cu  0.84443329  0.24490048  0.49936777     1.04300
C2145       C  0.86261030  0.28912892  0.54394980     0.95400
C2146       C  0.86980902  0.20836938  0.95809070     0.94600
C2147       C  0.86017824  0.28948717  0.95513517     0.86700
C2148       C  0.87918139  0.20730494  0.53976340     0.93000
C2149       C  0.84634082  0.39302855  0.87067765     0.04500
C2150       C  0.87077386  0.39793385  0.85051564     0.04500
C2151       C  0.89544655  0.37749083  0.85002642     0.04500
C2152       C  0.89570435  0.35212681  0.86966845     0.04500
C2153       C  0.87279720  0.34895572  0.89201897     0.04500
C2154       C  0.84781095  0.36920605  0.89195886     0.04500
O2155       O  0.88216837  0.46666589  0.78315455    -0.70800
O2156       O  0.87899876  0.03630604  0.71965848    -0.71700
O2157       O  0.87935675  0.03215739  0.78364836    -0.60400
O2158       O  0.88902942  0.46546890  0.71956586    -0.68800
O2159       O  0.83917987  0.47113337  0.71447397    -0.68300
O2160       O  0.82894058  0.03125138  0.78362287    -0.59600
O2161       O  0.82859781  0.03540938  0.72056124    -0.72100
O2162       O  0.83228156  0.47084711  0.77726332    -0.70900
Cu2163     Cu  0.88172104  0.00200911  0.74994959     1.04600
Cu2164     Cu  0.83747547  0.50342329  0.74568259     1.04300
C2165       C  0.85524401  0.45826332  0.78968500     0.95400
C2166       C  0.85336337  0.04704138  0.71122775     0.94600
C2167       C  0.85398043  0.04169105  0.79383744     0.86700
C2168       C  0.86375038  0.45766066  0.70753556     0.93000
C2169       C  0.84641439  0.10752858  0.62898762     0.04500
C2170       C  0.87085833  0.10668136  0.65000940     0.04500
C2171       C  0.89265147  0.13039354  0.65010092     0.04500
C2172       C  0.89049843  0.15393819  0.62863280     0.04500
C2173       C  0.86700933  0.15395068  0.60691081     0.04500
C2174       C  0.84481504  0.13094396  0.60724036     0.04500
O2175       O  0.97486497  0.21461898  0.59482478    -0.70800
O2176       O  0.53623254  0.28305457  0.60846843    -0.71700
O2177       O  0.54010942  0.21917044  0.61291921    -0.60400
O2178       O  0.97507613  0.27929934  0.59293875    -0.68800
O2179       O  0.96508020  0.28162332  0.64215512    -0.73100
O2180       O  0.52944946  0.22165430  0.66196730    -0.59600
O2181       O  0.52627823  0.28539040  0.65768005    -0.72100
O2182       O  0.96194843  0.21796022  0.64330869    -0.70900
Cu2183     Cu  0.50738014  0.24859138  0.60222595     1.04600
Cu2184     Cu  0.99429235  0.24829588  0.65173816     1.04300
C2185       C  0.95859299  0.20610739  0.61718046     0.95400
C2186       C  0.54051756  0.29504137  0.63443991     0.94600
C2187       C  0.54541975  0.21125216  0.64020626     0.86700
C2188       C  0.96060649  0.29084008  0.61510942     0.93000
C2189       C  0.64094474  0.40542199  0.61742628     0.04500
C2190       C  0.61705582  0.40579285  0.63870360     0.04500
C2191       C  0.59474077  0.38297502  0.63841554     0.04500
C2192       C  0.59591585  0.35964239  0.61635045     0.04500
C2193       C  0.62049368  0.35845046  0.59531777     0.04500
C2194       C  0.64319562  0.38143794  0.59608782     0.04500
O2195       O  0.60933085  0.46344443  0.72045848    -0.70800
O2196       O  0.61123264  0.02616883  0.78413060    -0.71700
O2197       O  0.60295959  0.02597025  0.71950872    -0.60400
O2198       O  0.61768816  0.46487392  0.78405205    -0.68800
O2199       O  0.66760626  0.46708976  0.77740554    -0.68300
O2200       O  0.65267721  0.03251378  0.71393305    -0.59600
O2201       O  0.66085591  0.03202784  0.77761646    -0.72100
O2202       O  0.65940090  0.46625608  0.71466087    -0.70900
Cu2203     Cu  0.60899514  0.99421588  0.75106160     1.04600
Cu2204     Cu  0.66353576  0.49902195  0.74532407     1.04300
C2205       C  0.63385584  0.45456757  0.70781700     0.95400
C2206       C  0.63634524  0.03897580  0.79128515     0.94600
C2207       C  0.62534556  0.03864226  0.70634666     0.86700
C2208       C  0.64438247  0.45547051  0.79024471     0.93000
C2209       C  0.59507242  0.11416849  0.85834278     0.04500
C2210       C  0.59556871  0.13772960  0.88014794     0.04500
C2211       C  0.61854743  0.13826254  0.90279059     0.04500
C2212       C  0.64108702  0.11525829  0.90302928     0.04500
C2213       C  0.64045600  0.09206626  0.88092423     0.04500
C2214       C  0.61754347  0.09148246  0.85853857     0.04500
O2215       O  0.96251376  0.21989909  0.85132138    -0.70800
O2216       O  0.53529197  0.27940243  0.84173919    -0.71700
O2217       O  0.53034341  0.21611681  0.83918963    -0.60400
O2218       O  0.96548732  0.28430560  0.85150540    -0.68800
O2219       O  0.97654525  0.28504869  0.90050355    -0.68300
O2220       O  0.53524090  0.21324122  0.88912144    -0.59600
O2221       O  0.54120059  0.27742262  0.89159834    -0.72100
O2222       O  0.97089776  0.22038691  0.90089421    -0.70900
Cu2223     Cu  0.50050956  0.25075060  0.84252901     1.04600
Cu2224     Cu  0.00553930  0.25031121  0.89632146     1.04300
C2225       C  0.95617377  0.21066584  0.87787826     0.95400
C2226       C  0.54944778  0.28730105  0.86557711     0.94600
C2227       C  0.54216656  0.20400841  0.86269028     0.86700
C2228       C  0.96197135  0.29566735  0.87795653     0.93000
O2229       O  0.71355052  0.10848408  0.53247572    -0.70800
O2230       O  0.77829567  0.09417483  0.96918437    -0.71700
O2231       O  0.77607712  0.09357183  0.53069561    -0.60400
O2232       O  0.71424557  0.10585242  0.96783464    -0.68800
O2233       O  0.72303724  0.15528349  0.96620209    -0.68300
O2234       O  0.78648865  0.14279136  0.53008979    -0.59600
O2235       O  0.78699790  0.14369140  0.96755143    -0.72100
O2236       O  0.72463960  0.15753138  0.53133077    -0.70900
Cu2237     Cu  0.74573356  0.09927622  0.00026988     1.04600
Cu2238     Cu  0.75513044  0.15109587  0.49839312     1.04300
C2239       C  0.70992505  0.13536819  0.54258443     0.95400
C2240       C  0.79337413  0.11669686  0.95919288     0.94600
C2241       C  0.79116260  0.11623808  0.54052053     0.86700
C2242       C  0.70830605  0.13206670  0.95706759     0.93000
O2243       O  0.72793045  0.41024764  0.96845968    -0.70800
O2244       O  0.78475284  0.42143115  0.53104482    -0.71700
O2245       O  0.79224904  0.40407795  0.97431745    -0.60400
O2246       O  0.71963076  0.42240142  0.52793658    -0.68800
O2247       O  0.71857543  0.37230719  0.53176644    -0.68300
O2248       O  0.78698913  0.35417521  0.97016181    -0.59600
O2249       O  0.78398882  0.37126481  0.53419301    -0.72100
O2250       O  0.72316111  0.36025611  0.96526386    -0.70900
Cu2251     Cu  0.75391645  0.42139980  0.49796064     1.04600
Cu2252     Cu  0.75242112  0.36774034  0.50117276     1.04300
C2253       C  0.71581323  0.38681688  0.95655950     0.95400
C2254       C  0.79506342  0.39688599  0.54214496     0.94600
C2255       C  0.80061429  0.37876900  0.96324225     0.86700
C2256       C  0.70787071  0.39829864  0.53877782     0.93000
C2257       C  0.66452246  0.11333278  0.92750643    -0.14200
C2258       C  0.68413116  0.13579725  0.93401707    -0.29400
H2259       H  0.66700394  0.09170980  0.93893543     0.14800
H2260       H  0.68229928  0.15733167  0.92231616     0.15400
C2261       C  0.56480222  0.17984236  0.85937177    -0.14200
C2262       C  0.57008837  0.15973699  0.88157744    -0.29400
H2263       H  0.57853423  0.17980961  0.83908953     0.14800
H2264       H  0.55722251  0.16106611  0.90251535     0.15400
C2265       C  0.63784221  0.06230061  0.81520836    -0.14200
C2266       C  0.61584319  0.06653393  0.83575694    -0.29400
H2267       H  0.65793340  0.07650923  0.81593769     0.14800
H2268       H  0.59516617  0.05317232  0.83449298     0.15400
C2269       C  0.67062337  0.37849148  0.57614433    -0.14200
C2270       C  0.68103339  0.40112988  0.55863053    -0.29400
H2271       H  0.68176095  0.35657132  0.57514984     0.14800
H2272       H  0.66906729  0.42253035  0.55803353     0.15400
C2273       C  0.61512001  0.43046289  0.66146314    -0.14200
C2274       C  0.63341355  0.43011001  0.68559680    -0.29400
H2275       H  0.59832804  0.44823656  0.65863562     0.14800
H2276       H  0.64998519  0.41212498  0.68813700     0.15400
C2277       C  0.56252531  0.31985834  0.63786089    -0.14200
C2278       C  0.57079911  0.33722976  0.61429286    -0.29400
H2279       H  0.57268569  0.32334748  0.65997208     0.14800
H2280       H  0.56083104  0.33311294  0.59217362     0.15400
C2281       C  0.81923955  0.13285405  0.58531500    -0.14200
C2282       C  0.81427051  0.11171099  0.56406502    -0.29400
H2283       H  0.80596875  0.15358248  0.58494583     0.14800
H2284       H  0.82756442  0.09109097  0.56360240     0.15400
C2285       C  0.91168852  0.17985155  0.63074341    -0.14200
C2286       C  0.93627931  0.18181306  0.61303169    -0.29400
H2287       H  0.90778376  0.19645906  0.64847404     0.14800
H2288       H  0.94043030  0.16494028  0.59565322     0.15400
C2289       C  0.85156309  0.07351765  0.69110618    -0.14200
C2290       C  0.87380802  0.08107097  0.67184741    -0.29400
H2291       H  0.83079682  0.08670249  0.69164940     0.14800
H2292       H  0.89447073  0.06777199  0.67162958     0.15400
C2293       C  0.82321385  0.36629420  0.91456217    -0.14200
C2294       C  0.82618901  0.37833195  0.94216493    -0.29400
H2295       H  0.80186899  0.35604939  0.90764688     0.14800
H2296       H  0.84660722  0.39088126  0.94797384     0.15400
C2297       C  0.91790161  0.32722157  0.86437984    -0.14200
C2298       C  0.94118922  0.32142810  0.88300477    -0.29400
H2299       H  0.91446984  0.31303541  0.84459824     0.14800
H2300       H  0.94451213  0.33531231  0.90303090     0.15400
C2301       C  0.85080319  0.43293753  0.81082555    -0.14200
C2302       C  0.87224127  0.42551677  0.83113392    -0.29400
H2303       H  0.83054154  0.41926054  0.80827055     0.14800
H2304       H  0.89283959  0.43901152  0.83226469     0.15400
C2305       C  0.88384636  0.18350192  0.56241278    -0.14200
C2306       C  0.86391720  0.17919173  0.58491683    -0.29400
H2307       H  0.90379771  0.16932310  0.56045410     0.14800
H2308       H  0.84369534  0.19321126  0.58619404     0.15400
C2309       C  0.87712803  0.32657150  0.91706320    -0.14200
C2310       C  0.85494689  0.30918642  0.92871485    -0.29400
H2311       H  0.89950033  0.32522264  0.92713010     0.14800
H2312       H  0.83242763  0.30923936  0.91880784     0.15400
C2313       C  0.61256857  0.19047810  0.92455455    -0.14200
C2314       C  0.61789002  0.16073152  0.92816604    -0.29400
H2315       H  0.60821305  0.20008220  0.90242631     0.14800
H2316       H  0.62401552  0.15276579  0.95062228     0.15400
C2317       C  0.61400339  0.30569262  0.57305733    -0.14200
C2318       C  0.62208424  0.33505229  0.57047624    -0.29400
H2319       H  0.60574204  0.29644727  0.59418177     0.14800
H2320       H  0.63110109  0.34239305  0.54878730     0.15400
C2321       C  0.68992001  0.06886755  0.86976010    -0.14200
C2322       C  0.66268915  0.06703541  0.88306817    -0.29400
H2323       H  0.69517055  0.08761669  0.85476180     0.14800
H2324       H  0.65708818  0.04775013  0.89725944     0.15400
C2325       C  0.81419561  0.43297299  0.89329765    -0.14200
C2326       C  0.81987846  0.41388081  0.87042745    -0.29400
H2327       H  0.82823587  0.43264902  0.91346087     0.14800
H2328       H  0.80526888  0.41411199  0.85070776     0.15400
C2329       C  0.68455039  0.36891771  0.91401164    -0.14200
C2330       C  0.69192001  0.39077492  0.93377483    -0.29400
H2331       H  0.69682853  0.34759915  0.91444943     0.14800
H2332       H  0.67891270  0.41154148  0.93463365     0.15400
C2333       C  0.57589808  0.30740958  0.86193595    -0.14200
C2334       C  0.58321504  0.32883925  0.88207506    -0.29400
H2335       H  0.58881311  0.30547978  0.84111851     0.14800
H2336       H  0.57009189  0.33085032  0.90275757     0.15400
C2337       C  0.62617864  0.42063871  0.82986184    -0.14200
C2338       C  0.64866074  0.43040489  0.81175181    -0.29400
H2339       H  0.60406626  0.43127060  0.82821489     0.14800
H2340       H  0.67066844  0.41943344  0.81213583     0.15400
C2341       C  0.63828919  0.32422665  0.91829992    -0.14200
C2342       C  0.61993952  0.32077043  0.94215609    -0.29400
H2343       H  0.65703484  0.30864133  0.91478359     0.14800
H2344       H  0.60119960  0.33636699  0.94559378     0.15400
C2345       C  0.67964539  0.41769775  0.87013017    -0.14200
C2346       C  0.67874745  0.44390758  0.88538350    -0.29400
H2347       H  0.69986972  0.41158605  0.85744559     0.14800
H2348       H  0.65958985  0.44886676  0.90005307     0.15400
C2349       C  0.57506338  0.38220290  0.69065186    -0.14200
C2350       C  0.56950516  0.38425063  0.66084927    -0.29400
H2351       H  0.59808750  0.37871470  0.69868535     0.14800
H2352       H  0.54622335  0.38439142  0.65270136     0.15400
C2353       C  0.92187426  0.38403012  0.82998272    -0.14200
C2354       C  0.92930142  0.36588300  0.80690636    -0.29400
H2355       H  0.93478550  0.40462909  0.83390422     0.14800
H2356       H  0.91631256  0.34535974  0.80294939     0.15400
C2357       C  0.56154207  0.38635506  0.82331364    -0.14200
C2358       C  0.58530588  0.36813647  0.82852854    -0.29400
H2359       H  0.55791054  0.40606421  0.83756969     0.14800
H2360       H  0.58920662  0.34912183  0.81345274     0.15400
C2361       C  0.82941535  0.37527409  0.58054233    -0.14200
C2362       C  0.82089255  0.39870055  0.56327176    -0.29400
H2363       H  0.81687289  0.35424214  0.57867150     0.14800
H2364       H  0.83339479  0.41986243  0.56425195     0.15400
C2365       C  0.91720294  0.32238137  0.62914151    -0.14200
C2366       C  0.93914274  0.31555733  0.60932191    -0.29400
H2367       H  0.91502611  0.30930480  0.64983663     0.14800
H2368       H  0.94208946  0.32892439  0.58895355     0.15400
C2369       C  0.88526843  0.42337183  0.66899198    -0.14200
C2370       C  0.86184491  0.43238949  0.68602575    -0.29400
H2371       H  0.90710699  0.43435269  0.67172041     0.14800
H2372       H  0.83992180  0.42142264  0.68342506     0.15400
C2373       C  0.85827158  0.30980412  0.56979007    -0.14200
C2374       C  0.87867529  0.33142021  0.57607177    -0.29400
H2375       H  0.83826387  0.30710840  0.58387567     0.14800
H2376       H  0.89835244  0.33404704  0.56153847     0.15400
C2377       C  0.94584421  0.38668097  0.67833360    -0.14200
C2378       C  0.92203344  0.36839815  0.67371450    -0.29400
H2379       H  0.94949348  0.40597778  0.66358170     0.14800
H2380       H  0.91862004  0.34902632  0.68845930     0.15400
C2381       C  0.68559733  0.43320456  0.63689190    -0.14200
C2382       C  0.66283700  0.43103680  0.61693636    -0.29400
H2383       H  0.68839656  0.41607490  0.65422247     0.14800
H2384       H  0.65954070  0.44881119  0.60032074     0.15400
C2385       C  0.81978274  0.05993429  0.61650539    -0.14200
C2386       C  0.82071961  0.08599018  0.63188403    -0.29400
H2387       H  0.83747066  0.05449367  0.60028362     0.14800
H2388       H  0.80222004  0.09190143  0.64703349     0.15400
C2389       C  0.80897084  0.42544944  0.62705008    -0.14200
C2390       C  0.83893829  0.42751498  0.62252123    -0.29400
H2391       H  0.79856851  0.40355802  0.63129191     0.14800
H2392       H  0.84947284  0.44969547  0.62063872     0.15400
C2393       C  0.82935336  0.13190598  0.91946667    -0.14200
C2394       C  0.81908997  0.11094726  0.93879503    -0.29400
H2395       H  0.81777730  0.15348932  0.91816992     0.14800
H2396       H  0.82990839  0.08890752  0.93979624     0.15400
C2397       C  0.93344176  0.15962866  0.87980644    -0.14200
C2398       C  0.93045241  0.18990121  0.88172430    -0.29400
H2399       H  0.95576225  0.15009649  0.87547310     0.14800
H2400       H  0.90809160  0.20005229  0.88324823     0.15400
C2401       C  0.85337442  0.06579121  0.81678582    -0.14200
C2402       C  0.87708313  0.07107375  0.83520605    -0.29400
H2403       H  0.83328620  0.07992210  0.81775743     0.14800
H2404       H  0.89724430  0.05711369  0.83289925     0.15400
C2405       C  0.88685577  0.16475214  0.92716846    -0.14200
C2406       C  0.86782048  0.18784521  0.93204141    -0.29400
H2407       H  0.90646944  0.16173399  0.94175707     0.14800
H2408       H  0.84915631  0.19168864  0.91653184     0.15400
C2409       C  0.82535372  0.08421728  0.87518215    -0.14200
C2410       C  0.82421503  0.05660523  0.88743115    -0.29400
H2411       H  0.80559210  0.09359958  0.86386322     0.14800
H2412       H  0.84333195  0.04814407  0.90044339     0.15400
C2413       C  0.68909066  0.14092916  0.56792651    -0.14200
C2414       C  0.66837050  0.12026806  0.57605618    -0.29400
H2415       H  0.69092282  0.16216881  0.58020996     0.14800
H2416       H  0.66701192  0.09902125  0.56374011     0.15400
C2417       C  0.58066321  0.17111804  0.62539843    -0.14200
C2418       C  0.57050807  0.19024248  0.64671056    -0.29400
H2419       H  0.57027357  0.17172536  0.60308636     0.14800
H2420       H  0.58103222  0.19126626  0.66881494     0.15400
C2421       C  0.63472054  0.08529866  0.67810678    -0.14200
C2422       C  0.61932884  0.05944165  0.68123795    -0.29400
H2423       H  0.65152765  0.09182878  0.69488258     0.14800
H2424       H  0.60186701  0.05335863  0.66499644     0.15400
C2425       C  0.63038632  0.17588992  0.58446196    -0.14200
C2426       C  0.62804586  0.17359039  0.55432252    -0.29400
H2427       H  0.63111274  0.19831564  0.59462266     0.14800
H2428       H  0.62419621  0.15167391  0.54384755     0.15400
C2429       C  0.66881151  0.07478037  0.62172140    -0.14200
C2430       C  0.69015611  0.06670831  0.64179479    -0.29400
H2431       H  0.66691145  0.06215773  0.60070484     0.14800
H2432       H  0.69288437  0.07933998  0.66267986     0.15400
C2433       C  0.93778842  0.11264901  0.67868139    -0.14200
C2434       C  0.91577905  0.13312460  0.67468825    -0.29400
H2435       H  0.93871419  0.09284761  0.66414104     0.14800
H2436       H  0.91517788  0.15311884  0.68902789     0.15400
C2437       C  0.56955202  0.11149109  0.83660730    -0.14200
C2438       C  0.56924348  0.12722892  0.81073988    -0.29400
H2439       H  0.55135198  0.09569936  0.84175071     0.14800
H2440       H  0.58750845  0.14291186  0.80560726     0.15400
C2441       C  0.92897003  0.10942284  0.83639209    -0.14200
C2442       C  0.93305409  0.12817886  0.81295617    -0.29400
H2443       H  0.94185800  0.08850994  0.83775724     0.14800
H2444       H  0.92030209  0.14921947  0.81205295     0.15400
C2445       C  0.58611124  0.12973362  0.67798160    -0.14200
C2446       C  0.56466457  0.10855180  0.68234401    -0.29400
H2447       H  0.58747619  0.14878243  0.69341037     0.14800
H2448       H  0.56345825  0.08881820  0.66777856     0.15400
O2449       O  0.96799995  0.59571219  0.22250190    -0.70800
O2450       O  0.52571286  0.58406271  0.28217453    -0.71700
O2451       O  0.96770581  0.60828308  0.28605124    -0.60400
O2452       O  0.53166378  0.58504558  0.21755072    -0.68800
O2453       O  0.53409980  0.63525784  0.21741017    -0.68300
O2454       O  0.96781306  0.65768484  0.27692158    -0.59600
O2455       O  0.53103001  0.63406630  0.28181580    -0.72100
O2456       O  0.96751170  0.64523496  0.21379993    -0.70900
Cu2457     Cu  0.49686799  0.58476253  0.24715858     1.04600
Cu2458     Cu  0.99998338  0.65325322  0.24497962     1.04300
C2459       C  0.95788490  0.61850362  0.20799653     0.95400
C2460       C  0.53750821  0.60812922  0.29297473     0.94600
C2461       C  0.95775941  0.63492801  0.29161894     0.86700
C2462       C  0.54328717  0.60963127  0.20760866     0.93000
C2463       C  0.64836201  0.60137447  0.12466614     0.04500
C2464       C  0.62928113  0.60445715  0.15032022     0.04500
C2465       C  0.60835740  0.62878259  0.15219325     0.04500
C2466       C  0.60801877  0.65135397  0.12939100     0.04500
C2467       C  0.62867989  0.64952436  0.10473870     0.04500
C2468       C  0.64795602  0.62382867  0.10177155     0.04500
C2469       C  0.90062159  0.62197301  0.35631233     0.04500
C2470       C  0.87518701  0.60236969  0.35412209     0.04500
C2471       C  0.84996884  0.60695997  0.37358667     0.04500
C2472       C  0.85071855  0.62981111  0.39594406     0.04500
C2473       C  0.87685767  0.64819228  0.39920506     0.04500
C2474       C  0.90137004  0.64518244  0.37861303     0.04500
O2475       O  0.72383490  0.96709028  0.15892084    -0.70800
O2476       O  0.78881065  0.52976396  0.14915821    -0.71700
O2477       O  0.72553075  0.53114824  0.16034865    -0.60400
O2478       O  0.78692129  0.96647638  0.14779985    -0.68800
O2479       O  0.77708488  0.96490728  0.09846621    -0.68300
O2480       O  0.71736904  0.53178812  0.11079968    -0.59600
O2481       O  0.78152063  0.52821391  0.09944458    -0.72100
O2482       O  0.71452400  0.96766516  0.10957556    -0.70900
Cu2483     Cu  0.75668923  0.49814423  0.15651598     1.04600
Cu2484     Cu  0.74694072  0.99855035  0.10191434     1.04300
C2485       C  0.70949281  0.95688205  0.13592632     0.95400
C2486       C  0.79571748  0.53849450  0.12247137     0.94600
C2487       C  0.71191970  0.54209751  0.13733043     0.86700
C2488       C  0.79111054  0.95493739  0.12162923     0.93000
C2489       C  0.86194432  0.90560204  0.11910874     0.04500
C2490       C  0.86125941  0.88386322  0.09557079     0.04500
C2491       C  0.88280556  0.86013786  0.09505283     0.04500
C2492       C  0.90405652  0.85738450  0.11885428     0.04500
C2493       C  0.90361991  0.87812333  0.14339269     0.04500
C2494       C  0.88277162  0.90257475  0.14336176     0.04500
O2495       O  0.53161375  0.85912773  0.28903311    -0.70800
O2496       O  0.97316602  0.86481698  0.21380313    -0.71700
O2497       O  0.53654837  0.84451106  0.22648236    -0.60400
O2498       O  0.96733597  0.86436224  0.27804280    -0.68800
O2499       O  0.96606694  0.91455710  0.27507261    -0.68300
O2500       O  0.53762672  0.89366269  0.21608339    -0.59600
O2501       O  0.97843000  0.91479010  0.21198783    -0.72100
O2502       O  0.53017546  0.90840228  0.27936599    -0.70900
Cu2503     Cu  0.00231605  0.86175142  0.24935497     1.04600
Cu2504     Cu  0.50212439  0.90241034  0.24365974     1.04300
C2505       C  0.53972116  0.88623825  0.29529110     0.95400
C2506       C  0.96738108  0.89035789  0.20132928     0.94600
C2507       C  0.54761718  0.86677977  0.21181238     0.86700
C2508       C  0.95511417  0.88960187  0.28489467     0.93000
C2509       C  0.60271728  0.85362960  0.37943818     0.04500
C2510       C  0.60217233  0.87584709  0.35622040     0.04500
C2511       C  0.62571625  0.89773026  0.35456963     0.04500
C2512       C  0.65108737  0.89524283  0.37419755     0.04500
C2513       C  0.65215741  0.87238705  0.39665864     0.04500
C2514       C  0.62769337  0.85179102  0.39963242     0.04500
O2515       O  0.72533395  0.53223918  0.34670942    -0.70800
O2516       O  0.78157262  0.96182672  0.35873601    -0.71700
O2517       O  0.71741904  0.96761387  0.35354022    -0.60400
O2518       O  0.78903990  0.52746816  0.35392022    -0.68800
O2519       O  0.78368893  0.53303308  0.40366892    -0.68300
O2520       O  0.71377572  0.97509500  0.40316837    -0.59600
O2521       O  0.77852383  0.96880093  0.40840079    -0.72100
O2522       O  0.71941253  0.53699248  0.39644363    -0.70900
Cu2523     Cu  0.75306032  0.99597699  0.35024901     1.04600
Cu2524     Cu  0.74925181  0.50375471  0.40490841     1.04300
C2525       C  0.71298675  0.54507668  0.36943204     0.95400
C2526       C  0.78992384  0.95510089  0.38557244     0.94600
C2527       C  0.70415805  0.96293790  0.37883578     0.86700
C2528       C  0.79758859  0.53890212  0.37908321     0.93000
O2529       O  0.58702686  0.78241785  0.47406198    -0.70800
O2530       O  0.60304193  0.71301545  0.02850858    -0.71700
O2531       O  0.60866594  0.77684826  0.03682515    -0.60400
O2532       O  0.58965478  0.71909945  0.46193421    -0.68800
O2533       O  0.64008356  0.71907711  0.46282079    -0.68300
O2534       O  0.65855579  0.77335407  0.03048124    -0.59600
O2535       O  0.65304193  0.70968696  0.02264322    -0.72100
O2536       O  0.63725286  0.78282168  0.47008296    -0.70900
Cu2537     Cu  0.60021202  0.74927149  0.00144913     1.04600
Cu2538     Cu  0.64126908  0.74729552  0.49854609     1.04300
C2539       C  0.61132421  0.79399073  0.46335284     0.95400
C2540       C  0.62821877  0.69989248  0.03400703     0.94600
C2541       C  0.63572439  0.78391564  0.04472825     0.86700
C2542       C  0.61508605  0.71081821  0.45074006     0.93000
O2543       O  0.89021757  0.78572820  0.02914520    -0.70800
O2544       O  0.88977709  0.72137023  0.46602144    -0.71700
O2545       O  0.88645978  0.78507686  0.46737572    -0.60400
O2546       O  0.89654053  0.72105110  0.02927302    -0.68800
O2547       O  0.84661594  0.71680073  0.03497251    -0.68300
O2548       O  0.83637005  0.78210012  0.47214217    -0.59600
O2549       O  0.83961276  0.71936024  0.47109119    -0.72100
O2550       O  0.84035868  0.78037364  0.03417150    -0.70900
Cu2551     Cu  0.89309144  0.75318265  0.49880568     1.04600
Cu2552     Cu  0.83862773  0.74799114  0.00253840     1.04300
C2553       C  0.86516976  0.79310981  0.04189328     0.95400
C2554       C  0.86387645  0.71114620  0.45775643     0.94600
C2555       C  0.85985705  0.79257265  0.45873259     0.86700
C2556       C  0.87362561  0.70893463  0.04210461     0.93000
C2557       C  0.85030303  0.89372811  0.37035027     0.04500
C2558       C  0.87582015  0.89803058  0.35118610     0.04500
C2559       C  0.90050331  0.87738090  0.35223557     0.04500
C2560       C  0.89995608  0.85321933  0.37332881     0.04500
C2561       C  0.87584270  0.85058988  0.39458557     0.04500
C2562       C  0.85053465  0.87041978  0.39224070     0.04500
O2563       O  0.88390468  0.96772336  0.28028664    -0.70800
O2564       O  0.87847443  0.53453537  0.21835046    -0.71700
O2565       O  0.87932048  0.53427763  0.28246367    -0.60400
O2566       O  0.88344933  0.96945970  0.21600553    -0.68800
O2567       O  0.83306417  0.96857173  0.21611044    -0.68300
O2568       O  0.82896268  0.53213590  0.28263741    -0.59600
O2569       O  0.82812506  0.53231936  0.21952665    -0.72100
O2570       O  0.83349285  0.96643330  0.27926405    -0.70900
Cu2571     Cu  0.88221938  0.50201040  0.25046776     1.04600
Cu2572     Cu  0.83088537  0.99979393  0.24918622     1.04300
C2573       C  0.85870143  0.95618536  0.28894405     0.95400
C2574       C  0.85251457  0.54435993  0.20976399     0.94600
C2575       C  0.85373017  0.54386654  0.29212721     0.86700
C2576       C  0.85840023  0.95868404  0.20610495     0.93000
C2577       C  0.84576378  0.60918080  0.12990572     0.04500
C2578       C  0.86966592  0.60725426  0.15146724     0.04500
C2579       C  0.89111049  0.63119027  0.15357051     0.04500
C2580       C  0.88980458  0.65579181  0.13315636     0.04500
C2581       C  0.86651531  0.65719661  0.11125254     0.04500
C2582       C  0.84448039  0.63404502  0.10971614     0.04500
O2583       O  0.96855420  0.72139697  0.09543359    -0.70800
O2584       O  0.52669994  0.78315949  0.08564360    -0.71700
O2585       O  0.53230266  0.71855236  0.08552187    -0.60400
O2586       O  0.96800657  0.78470079  0.10659574    -0.68800
O2587       O  0.96774647  0.77627563  0.15612437    -0.73100
O2588       O  0.53498284  0.71773212  0.13566727    -0.59600
O2589       O  0.53213083  0.78228198  0.13559309    -0.72100
O2590       O  0.96830731  0.71355000  0.14506681    -0.70900
Cu2591     Cu  0.49767123  0.74827110  0.08604015     1.04600
Cu2592     Cu  0.00046525  0.74501444  0.15226630     1.04300
C2593       C  0.95807802  0.70772651  0.11862578     0.95400
C2594       C  0.53846012  0.79378783  0.10980400     0.94600
C2595       C  0.54408215  0.70829279  0.10986004     0.86700
C2596       C  0.95761446  0.79029405  0.13301537     0.93000
C2597       C  0.64766209  0.89675400  0.11971545     0.04500
C2598       C  0.62451266  0.89884448  0.14189059     0.04500
C2599       C  0.60256644  0.87554445  0.14467950     0.04500
C2600       C  0.60289880  0.85078460  0.12435861     0.04500
C2601       C  0.62507712  0.84939068  0.10117028     0.04500
C2602       C  0.64805029  0.87177329  0.09944010     0.04500
O2603       O  0.60163777  0.96080291  0.22505080    -0.70800
O2604       O  0.61280202  0.53052796  0.28094097    -0.71700
O2605       O  0.60103606  0.52519301  0.21737230    -0.60400
O2606       O  0.61329678  0.96766244  0.28703298    -0.68800
O2607       O  0.66255325  0.96698996  0.27647372    -0.68300
O2608       O  0.65081947  0.52833144  0.20988968    -0.59600
O2609       O  0.66252701  0.53128363  0.27282906    -0.72100
O2610       O  0.65084375  0.96308262  0.21402265    -0.70900
Cu2611     Cu  0.60635037  0.49601022  0.25205739     1.04600
Cu2612     Cu  0.65775366  0.99745694  0.24279111     1.04300
C2613       C  0.62481805  0.95073839  0.21098144     0.95400
C2614       C  0.63907806  0.54157859  0.28636386     0.94600
C2615       C  0.62374841  0.53589084  0.20291319     0.86700
C2616       C  0.63990256  0.95708511  0.29159986     0.93000
C2617       C  0.60236514  0.62189283  0.34950339     0.04500
C2618       C  0.60071157  0.64343607  0.37331775     0.04500
C2619       C  0.62099353  0.64141829  0.39828687     0.04500
C2620       C  0.64297384  0.61806571  0.39900316     0.04500
C2621       C  0.64353445  0.59592600  0.37594069     0.04500
C2622       C  0.62326794  0.59768304  0.35122771     0.04500
O2623       O  0.96566732  0.72170353  0.36146155    -0.70800
O2624       O  0.53287336  0.78225971  0.34050933    -0.71700
O2625       O  0.53100219  0.71935172  0.33401409    -0.60400
O2626       O  0.97308909  0.78570375  0.36185613    -0.68800
O2627       O  0.97739268  0.78792292  0.41184649    -0.68300
O2628       O  0.53532338  0.71408756  0.38379586    -0.59600
O2629       O  0.53810817  0.77762539  0.39030026    -0.72100
O2630       O  0.96326571  0.72504940  0.41159494    -0.70900
Cu2631     Cu  0.49934003  0.75198594  0.33897288     1.04600
Cu2632     Cu  0.00180836  0.74988440  0.41332827     1.04300
C2633       C  0.95302820  0.71491754  0.38644541     0.95400
C2634       C  0.54649206  0.78902777  0.36503232     0.94600
C2635       C  0.54328556  0.70682214  0.35702094     0.86700
C2636       C  0.96654029  0.79825346  0.38722889     0.93000
O2637       O  0.71501407  0.60860660  0.03186365    -0.70800
O2638       O  0.77591832  0.59539004  0.46847765    -0.71700
O2639       O  0.77805452  0.59616192  0.03208059    -0.60400
O2640       O  0.71233916  0.60795701  0.46715198    -0.68800
O2641       O  0.72152412  0.65735121  0.46599830    -0.68300
O2642       O  0.78729304  0.64561135  0.03101549    -0.59600
O2643       O  0.78483674  0.64485166  0.46680326    -0.72100
O2644       O  0.72476840  0.65791943  0.03073153    -0.70900
Cu2645     Cu  0.74326286  0.60082779  0.49972714     1.04600
Cu2646     Cu  0.75622684  0.65254233  0.99842031     1.04300
C2647       C  0.71044746  0.63541892  0.04184722     0.95400
C2648       C  0.79072271  0.61789994  0.45799323     0.94600
C2649       C  0.79232698  0.61928037  0.04192534     0.86700
C2650       C  0.70688377  0.63427031  0.45643839     0.93000
O2651       O  0.72679422  0.91252252  0.46788357    -0.70800
O2652       O  0.78523144  0.90063738  0.03482268    -0.71700
O2653       O  0.79133979  0.90459094  0.47145135    -0.60400
O2654       O  0.72062122  0.90797125  0.02816492    -0.68800
O2655       O  0.71551768  0.85793452  0.02707582    -0.68300
O2656       O  0.78478751  0.85477148  0.46846076    -0.59600
O2657       O  0.77944388  0.85069212  0.03281036    -0.72100
O2658       O  0.72053293  0.86267726  0.46606713    -0.70900
Cu2659     Cu  0.75628027  0.90705921  0.00013905     1.04600
Cu2660     Cu  0.75060026  0.85354961  0.99799812     1.04300
C2661       C  0.71357543  0.88915431  0.45689335     0.95400
C2662       C  0.79195368  0.87410299  0.04423820     0.94600
C2663       C  0.79914550  0.87887068  0.46106009     0.86700
C2664       C  0.70661598  0.88398364  0.03611874     0.93000
C2665       C  0.66507658  0.61542973  0.42448090    -0.14200
C2666       C  0.68357907  0.63820766  0.43274340    -0.29400
H2667       H  0.66764174  0.59342009  0.43511634     0.14800
H2668       H  0.68176910  0.66007567  0.42166469     0.15400
C2669       C  0.56750865  0.68437151  0.35282030    -0.14200
C2670       C  0.57481207  0.66494480  0.37503042    -0.29400
H2671       H  0.58022788  0.68486131  0.33185691     0.14800
H2672       H  0.56239003  0.66582648  0.39626140     0.15400
C2673       C  0.64250386  0.56651966  0.30836009    -0.14200
C2674       C  0.62103372  0.57235411  0.32909798    -0.29400
H2675       H  0.66295293  0.58017271  0.30756581     0.14800
H2676       H  0.60056750  0.55866424  0.32958395     0.15400
C2677       C  0.67372359  0.86750075  0.07788224    -0.14200
C2678       C  0.67961269  0.88698460  0.05545148    -0.29400
H2679       H  0.68841182  0.84803800  0.08102586     0.14800
H2680       H  0.66509876  0.90653798  0.05207857     0.15400
C2681       C  0.62317957  0.92614006  0.16167289    -0.14200
C2682       C  0.62183663  0.92396850  0.19184217    -0.29400
H2683       H  0.62626783  0.94830056  0.15142877     0.14800
H2684       H  0.62017138  0.90208957  0.20285072     0.15400
C2685       C  0.55915075  0.81984536  0.10734556    -0.14200
C2686       C  0.58056241  0.82572282  0.12808442    -0.29400
H2687       H  0.55731873  0.83402565  0.08739348     0.14800
H2688       H  0.58229096  0.81156600  0.14805790     0.15400
C2689       C  0.81993332  0.63674794  0.08677400    -0.14200
C2690       C  0.81484786  0.61519331  0.06603972    -0.29400
H2691       H  0.80769037  0.65805207  0.08527509     0.14800
H2692       H  0.82728551  0.59403259  0.06683363     0.15400
C2693       C  0.91268094  0.68045245  0.13581060    -0.14200
C2694       C  0.93402179  0.68496222  0.11463744    -0.29400
H2695       H  0.91335665  0.69348206  0.15666839     0.14800
H2696       H  0.93382486  0.67178945  0.09393386     0.15400
C2697       C  0.84983179  0.57070221  0.18952843    -0.14200
C2698       C  0.87256147  0.58040023  0.17185262    -0.29400
H2699       H  0.82834694  0.58269488  0.18960771     0.14800
H2700       H  0.89395646  0.56835721  0.17242135     0.15400
C2701       C  0.82408615  0.86764431  0.41284991    -0.14200
C2702       C  0.82583262  0.87754980  0.44135947    -0.29400
H2703       H  0.80255101  0.85979777  0.40374625     0.14800
H2704       H  0.84667960  0.88808552  0.44927702     0.15400
C2705       C  0.92256683  0.82826044  0.36993408    -0.14200
C2706       C  0.94585393  0.82453026  0.38909400    -0.29400
H2707       H  0.91997422  0.81303329  0.35078545     0.14800
H2708       H  0.94812554  0.83970194  0.40833255     0.15400
C2709       C  0.85783433  0.92986875  0.30914185    -0.14200
C2710       C  0.87768165  0.92543602  0.33166136    -0.29400
H2711       H  0.83983402  0.91352500  0.30530491     0.14800
H2712       H  0.89654863  0.94098952  0.33476447     0.15400
C2713       C  0.87873370  0.68482971  0.06444608    -0.14200
C2714       C  0.86366880  0.68373576  0.09074666    -0.29400
H2715       H  0.89535499  0.66750571  0.05908304     0.14800
H2716       H  0.84694183  0.70098141  0.09613702     0.15400
C2717       C  0.87889590  0.82868716  0.42038025    -0.14200
C2718       C  0.85590756  0.81236128  0.43215719    -0.29400
H2719       H  0.90111694  0.82653620  0.43067673     0.14800
H2720       H  0.83363891  0.81262141  0.42176267     0.15400
C2721       C  0.61574710  0.69191155  0.42335190    -0.14200
C2722       C  0.61794993  0.66167711  0.42530464    -0.29400
H2723       H  0.61566422  0.70305585  0.40147924     0.14800
H2724       H  0.61964372  0.65146890  0.44761701     0.15400
C2725       C  0.64089145  0.80472926  0.07031028    -0.14200
C2726       C  0.62124032  0.82708936  0.07617430    -0.29400
H2727       H  0.66147357  0.80242762  0.08360484     0.14800
H2728       H  0.60142873  0.82953969  0.06181177     0.15400
C2729       C  0.69110815  0.56944959  0.36424917    -0.14200
C2730       C  0.66461459  0.57002311  0.37899643    -0.29400
H2731       H  0.69648114  0.58676388  0.34767668     0.14800
H2732       H  0.65929419  0.55260566  0.39551872     0.15400
C2733       C  0.81416261  0.93251031  0.39019131    -0.14200
C2734       C  0.82342742  0.91420088  0.36769667    -0.29400
H2735       H  0.82577849  0.93221096  0.41183692     0.14800
H2736       H  0.81139162  0.91476455  0.34634523     0.15400
C2737       C  0.67882899  0.86967735  0.41748253    -0.14200
C2738       C  0.68918990  0.89293443  0.43432697    -0.29400
H2739       H  0.68905441  0.84750650  0.42028859     0.14800
H2740       H  0.67857343  0.91498924  0.43271968     0.15400
C2741       C  0.57284479  0.80928691  0.36333557    -0.14200
C2742       C  0.57683839  0.83223271  0.38265799    -0.29400
H2743       H  0.58853063  0.80623601  0.34462392     0.14800
H2744       H  0.56052021  0.83595713  0.40068099     0.15400
C2745       C  0.62283023  0.92375912  0.33310184    -0.14200
C2746       C  0.64451356  0.93212465  0.31336969    -0.29400
H2747       H  0.60194548  0.93663032  0.33369531     0.14800
H2748       H  0.66567733  0.91962492  0.31215234     0.15400
C2749       C  0.63018932  0.82637592  0.42190354    -0.14200
C2750       C  0.60894142  0.82031600  0.44287505    -0.29400
H2751       H  0.65036398  0.81229559  0.42094437     0.14800
H2752       H  0.58873192  0.83425402  0.44434172     0.15400
C2753       C  0.67761878  0.91536492  0.37012210    -0.14200
C2754       C  0.67711565  0.94382530  0.38028033    -0.29400
H2755       H  0.69822082  0.90602452  0.36033166     0.14800
H2756       H  0.65738652  0.95212335  0.39249467     0.15400
C2757       C  0.57188983  0.86097549  0.18956174    -0.14200
C2758       C  0.57686014  0.87970735  0.16618010    -0.29400
H2759       H  0.58562032  0.84074999  0.19219398     0.14800
H2760       H  0.56346373  0.90025026  0.16409649     0.15400
C2761       C  0.92811392  0.88092029  0.33257586    -0.14200
C2762       C  0.92746299  0.88954342  0.30342078    -0.29400
H2763       H  0.94992725  0.87449927  0.34212240     0.14800
H2764       H  0.90631654  0.89460310  0.29205560     0.15400
C2765       C  0.55993616  0.89222984  0.32137556    -0.14200
C2766       C  0.58057011  0.87175483  0.33036179    -0.29400
H2767       H  0.55770621  0.91365626  0.33313150     0.14800
H2768       H  0.58202731  0.85059495  0.31796811     0.15400
C2769       C  0.83927848  0.88759438  0.07038227    -0.14200
C2770       C  0.81453727  0.87000083  0.06830777    -0.29400
H2771       H  0.84241780  0.90639088  0.05485997     0.14800
H2772       H  0.81122578  0.85156393  0.08415976     0.15400
C2773       C  0.92837869  0.83425218  0.11602397    -0.14200
C2774       C  0.93364179  0.81306490  0.13706669    -0.29400
H2775       H  0.94136357  0.83397402  0.09512025     0.14800
H2776       H  0.92022941  0.81237707  0.15762822     0.15400
C2777       C  0.88343312  0.92548432  0.16838993    -0.14200
C2778       C  0.85824480  0.93439180  0.18314439    -0.29400
H2779       H  0.90505190  0.93553540  0.17447340     0.14800
H2780       H  0.83661047  0.92382209  0.17791399     0.15400
C2781       C  0.86424120  0.81571543  0.06650761    -0.14200
C2782       C  0.88416462  0.83854722  0.06906147    -0.29400
H2783       H  0.84614330  0.81362398  0.08302280     0.14800
H2784       H  0.90267028  0.84065359  0.05296425     0.15400
C2785       C  0.94804902  0.89247225  0.17423834    -0.14200
C2786       C  0.92457277  0.87384534  0.16945717    -0.29400
H2787       H  0.95177221  0.91133366  0.15890732     0.14800
H2788       H  0.91989158  0.85579252  0.18542213     0.15400
C2789       C  0.68745179  0.93194978  0.13989163    -0.14200
C2790       C  0.67069953  0.92147709  0.11665323    -0.29400
H2791       H  0.68517655  0.92181580  0.16215604     0.14800
H2792       H  0.67354599  0.93185769  0.09468637     0.15400
C2793       C  0.82070793  0.56021752  0.11821455    -0.14200
C2794       C  0.81985363  0.58761087  0.13122340    -0.29400
H2795       H  0.83984083  0.55382508  0.10409878     0.14800
H2796       H  0.79989065  0.59438852  0.14398350     0.15400
C2797       C  0.81128723  0.92896129  0.11837237    -0.14200
C2798       C  0.84145467  0.93231208  0.11811511    -0.29400
H2799       H  0.80113223  0.90657752  0.11780007     0.14800
H2800       H  0.85123601  0.95479010  0.12056934     0.15400
C2801       C  0.82440994  0.63397712  0.41677230    -0.14200
C2802       C  0.81537712  0.61245430  0.43616012    -0.29400
H2803       H  0.81234948  0.65533398  0.41635134     0.14800
H2804       H  0.82649493  0.59052037  0.43622398     0.15400
C2805       C  0.92846946  0.66553316  0.38082034    -0.14200
C2806       C  0.92615457  0.69548727  0.38588158    -0.29400
H2807       H  0.95081846  0.65591959  0.37678015     0.14800
H2808       H  0.90421547  0.70632644  0.38822401     0.15400
C2809       C  0.85237390  0.56934524  0.31369965    -0.14200
C2810       C  0.87586817  0.57676044  0.33172901    -0.29400
H2811       H  0.83147167  0.58227947  0.31451829     0.14800
H2812       H  0.89667500  0.56375392  0.32980681     0.15400
C2813       C  0.88026647  0.66812007  0.42625154    -0.14200
C2814       C  0.86102133  0.69090988  0.43164266    -0.29400
H2815       H  0.89992200  0.66501959  0.44077969     0.14800
H2816       H  0.84218507  0.69499960  0.41639981     0.15400
C2817       C  0.82287233  0.58723374  0.37170583    -0.14200
C2818       C  0.82438472  0.55825861  0.38006158    -0.29400
H2819       H  0.80130281  0.59708785  0.36497985     0.14800
H2820       H  0.84546512  0.54891523  0.38873175     0.15400
C2821       C  0.68917132  0.64068214  0.06702425    -0.14200
C2822       C  0.66849367  0.61992407  0.07520326    -0.29400
H2823       H  0.69073080  0.66197971  0.07923748     0.14800
H2824       H  0.66752455  0.59857661  0.06303178     0.15400
C2825       C  0.58518871  0.67647897  0.13134572    -0.14200
C2826       C  0.56778494  0.68474233  0.10769216    -0.29400
H2827       H  0.58154296  0.68733277  0.15308626     0.14800
H2828       H  0.57050084  0.67344703  0.08603208     0.15400
C2829       C  0.63283455  0.58351404  0.17633453    -0.14200
C2830       C  0.61871742  0.55667490  0.17750189    -0.29400
H2831       H  0.64760339  0.59046394  0.19477488     0.14800
H2832       H  0.60286573  0.55014785  0.15983991     0.15400
C2833       C  0.63097336  0.67575603  0.08357298    -0.14200
C2834       C  0.62832743  0.67300799  0.05346912    -0.29400
H2835       H  0.63253781  0.69830441  0.09336267     0.14800
H2836       H  0.62475471  0.65098163  0.04313692     0.15400
C2837       C  0.66913840  0.57470257  0.12121837    -0.14200
C2838       C  0.69030278  0.56730553  0.14185373    -0.29400
H2839       H  0.66802360  0.56187646  0.10027503     0.14800
H2840       H  0.69210327  0.58023339  0.16267507     0.15400
C2841       C  0.93535606  0.61361507  0.18391124    -0.14200
C2842       C  0.91274288  0.63331704  0.17939361    -0.29400
H2843       H  0.93770897  0.59379369  0.16959438     0.14800
H2844       H  0.91131666  0.65327162  0.19374134     0.15400
C2845       C  0.58172416  0.62431193  0.32293406    -0.14200
C2846       C  0.55819361  0.60549905  0.31901477    -0.29400
H2847       H  0.58621323  0.64174223  0.30624534     0.14800
H2848       H  0.55449620  0.58713521  0.33492103     0.15400
C2849       C  0.92621126  0.61801091  0.33457601    -0.14200
C2850       C  0.93426639  0.63979836  0.31497069    -0.29400
H2851       H  0.93717988  0.59604204  0.33337324     0.14800
H2852       H  0.92311874  0.66171863  0.31594797     0.15400
C2853       C  0.58620221  0.63059006  0.17780634    -0.14200
C2854       C  0.56661426  0.60798061  0.18371285    -0.29400
H2855       H  0.58499301  0.65135273  0.19092488     0.14800
H2856       H  0.56702769  0.58768164  0.16994362     0.15400
O2857       O  0.96465540  0.60472628  0.71504262    -0.70800
O2858       O  0.52558351  0.58932873  0.78557474    -0.71700
O2859       O  0.96322679  0.60453880  0.77966533    -0.60400
O2860       O  0.53075208  0.58579917  0.72106222    -0.68800
O2861       O  0.53535939  0.63575401  0.71840585    -0.68300
O2862       O  0.97227681  0.65400042  0.77878499    -0.59600
O2863       O  0.53219386  0.63913174  0.78271250    -0.72100
O2864       O  0.97620730  0.65367879  0.71405838    -0.70900
Cu2865     Cu  0.49637106  0.58908113  0.75169244     1.04600
Cu2866     Cu  0.00599611  0.64912456  0.74864608     1.04300
C2867       C  0.96110912  0.63111168  0.70387805     0.95400
C2868       C  0.53758613  0.61359207  0.79538082     0.94600
C2869       C  0.95810119  0.63127454  0.78961108     0.86700
C2870       C  0.54369176  0.60936777  0.71012465     0.93000
C2871       C  0.64848656  0.60192368  0.62539077     0.04500
C2872       C  0.63061168  0.60478673  0.65193700     0.04500
C2873       C  0.60877340  0.62807097  0.65444863     0.04500
C2874       C  0.60713237  0.65073688  0.63187771     0.04500
C2875       C  0.62608135  0.64897477  0.60590850     0.04500
C2876       C  0.64580538  0.62380735  0.60211185     0.04500
C2877       C  0.90563587  0.61802933  0.85759373     0.04500
C2878       C  0.88088009  0.59782272  0.85609034     0.04500
C2879       C  0.85539631  0.60227575  0.87499008     0.04500
C2880       C  0.85527995  0.62589204  0.89664571     0.04500
C2881       C  0.88107439  0.64512675  0.89951541     0.04500
C2882       C  0.90600395  0.64162201  0.87937037     0.04500
O2883       O  0.72453947  0.96396783  0.65539654    -0.70800
O2884       O  0.78871659  0.52690400  0.65618882    -0.71700
O2885       O  0.72489263  0.53214070  0.66191946    -0.60400
O2886       O  0.78727248  0.96557516  0.64449772    -0.68800
O2887       O  0.77628624  0.96508685  0.59537078    -0.68300
O2888       O  0.71940116  0.53343095  0.61200299    -0.59600
O2889       O  0.78369925  0.52927293  0.60619919    -0.72100
O2890       O  0.71356888  0.96790687  0.60650835    -0.70900
Cu2891     Cu  0.75429051  0.49736669  0.66007588     1.04600
Cu2892     Cu  0.74626527  0.99880507  0.60031668     1.04300
C2893       C  0.70976756  0.95508842  0.63210583     0.95400
C2894       C  0.79694982  0.53742148  0.63057785     0.94600
C2895       C  0.71292717  0.54371021  0.63829485     0.86700
C2896       C  0.79113148  0.95491060  0.61796214     0.93000
C2897       C  0.86267964  0.90695579  0.61903689     0.04500
C2898       C  0.86317717  0.88454394  0.59621675     0.04500
C2899       C  0.88290491  0.85946615  0.59880116     0.04500
C2900       C  0.90116284  0.85610672  0.62508225     0.04500
C2901       C  0.90119701  0.87895281  0.64783230     0.04500
C2902       C  0.88174922  0.90432418  0.64469642     0.04500
O2903       O  0.53109660  0.84711942  0.78227309    -0.70800
O2904       O  0.98108097  0.84498517  0.71395614    -0.71700
O2905       O  0.53741625  0.85661209  0.71830630    -0.60400
O2906       O  0.97232191  0.84239391  0.77777777    -0.68800
O2907       O  0.96513620  0.89209510  0.78039454    -0.68300
O2908       O  0.53953608  0.90599481  0.72778855    -0.59600
O2909       O  0.97170276  0.89434514  0.71649568    -0.72100
O2910       O  0.52946784  0.89665249  0.79088877    -0.70900
Cu2911     Cu  0.00842772  0.84681737  0.75062889     1.04600
Cu2912     Cu  0.50273901  0.90371353  0.75520760     1.04300
C2913       C  0.53869295  0.87031582  0.79804787     0.95400
C2914       C  0.96797629  0.86868208  0.70373261     0.94600
C2915       C  0.54944127  0.88248285  0.71401961     0.86700
C2916       C  0.95760060  0.86513070  0.78782017     0.93000
C2917       C  0.61060343  0.84621042  0.87175089     0.04500
C2918       C  0.61018917  0.86792060  0.84793728     0.04500
C2919       C  0.63293026  0.89068700  0.84666906     0.04500
C2920       C  0.65748920  0.89018838  0.86742201     0.04500
C2921       C  0.65908318  0.86725901  0.88961795     0.04500
C2922       C  0.63559123  0.84563282  0.89200225     0.04500
O2923       O  0.72420395  0.53515734  0.85918226    -0.70800
O2924       O  0.78313711  0.96463356  0.86111868    -0.71700
O2925       O  0.71930790  0.96901167  0.85341554    -0.60400
O2926       O  0.78819901  0.52986751  0.86322405    -0.68800
O2927       O  0.78686520  0.52968701  0.91350453    -0.68300
O2928       O  0.71310518  0.97226848  0.90322132    -0.59600
O2929       O  0.77753366  0.96672601  0.91102081    -0.72100
O2930       O  0.72305298  0.53830310  0.90939740    -0.70900
Cu2931     Cu  0.75415577  0.99868603  0.85421013     1.04600
Cu2932     Cu  0.75058006  0.50250721  0.91410759     1.04300
C2933       C  0.71479395  0.54777157  0.88339838     0.95400
C2934       C  0.79010119  0.95534533  0.88758176     0.94600
C2935       C  0.70514118  0.96166255  0.87756701     0.86700
C2936       C  0.79893145  0.53831655  0.88874556     0.93000
O2937       O  0.60016881  0.78515231  0.97407024    -0.70800
O2938       O  0.59112095  0.70735139  0.52521214    -0.71700
O2939       O  0.58921115  0.77056942  0.53753151    -0.60400
O2940       O  0.59594002  0.72171315  0.96519072    -0.68800
O2941       O  0.64601588  0.71853865  0.95968150    -0.68300
O2942       O  0.63926547  0.77563188  0.53411732    -0.59600
O2943       O  0.64133520  0.71150811  0.52721327    -0.72100
O2944       O  0.64993021  0.78190532  0.96661686    -0.70900
Cu2945     Cu  0.58748215  0.74479020  0.49972972     1.04600
Cu2946     Cu  0.65366132  0.74582956  0.99469349     1.04300
C2947       C  0.62430702  0.79452035  0.96125882     0.95400
C2948       C  0.61676524  0.69806856  0.53486366     0.94600
C2949       C  0.61419884  0.78160634  0.54731520     0.86700
C2950       C  0.61925661  0.71162105  0.95122314     0.93000
O2951       O  0.89214011  0.78498112  0.53226667    -0.70800
O2952       O  0.88996812  0.71973697  0.96540388    -0.71700
O2953       O  0.88447906  0.78327790  0.96458956    -0.60400
O2954       O  0.89677093  0.72036703  0.52968200    -0.68800
O2955       O  0.84671270  0.71729031  0.53522592    -0.68300
O2956       O  0.83449567  0.77899894  0.96938735    -0.59600
O2957       O  0.83990063  0.71622014  0.97044094    -0.72100
O2958       O  0.84216044  0.78067258  0.53718358    -0.70900
Cu2959     Cu  0.89207833  0.75268675  0.99708217     1.04600
Cu2960     Cu  0.83950749  0.74984204  0.50420152     1.04300
C2961       C  0.86731534  0.79221435  0.54556502     0.95400
C2962       C  0.86447321  0.70844867  0.95732506     0.94600
C2963       C  0.85767351  0.78995463  0.95585935     0.86700
C2964       C  0.87350185  0.70846892  0.54201242     0.93000
C2965       C  0.84796936  0.89280099  0.86956085     0.04500
C2966       C  0.87281210  0.89648285  0.84954635     0.04500
C2967       C  0.89656325  0.87501819  0.84938076     0.04500
C2968       C  0.89591767  0.85026577  0.86980943     0.04500
C2969       C  0.87265754  0.84818189  0.89190583     0.04500
C2970       C  0.84824405  0.86914352  0.89109932     0.04500
O2971       O  0.88041683  0.96769773  0.78020994    -0.70800
O2972       O  0.89669538  0.52954054  0.72015788    -0.71700
O2973       O  0.88809558  0.53066563  0.78393427    -0.60400
O2974       O  0.88088859  0.97165903  0.71625353    -0.68800
O2975       O  0.83049007  0.97088117  0.71563211    -0.68300
O2976       O  0.83831918  0.53532998  0.77745197    -0.59600
O2977       O  0.84696771  0.53541164  0.71443819    -0.72100
O2978       O  0.83002515  0.96647653  0.77875030    -0.70900
Cu2979     Cu  0.89077580  0.49794712  0.75191213     1.04600
Cu2980     Cu  0.82778944  0.00095720  0.74966473     1.04300
C2981       C  0.85516887  0.95582898  0.78825033     0.95400
C2982       C  0.87427384  0.54277286  0.70768245     0.94600
C2983       C  0.86279139  0.54333302  0.79054386     0.86700
C2984       C  0.85596885  0.96129496  0.70569567     0.93000
C2985       C  0.84246519  0.61141852  0.63012760     0.04500
C2986       C  0.86411289  0.61029713  0.65388272     0.04500
C2987       C  0.88792003  0.63204367  0.65551171     0.04500
C2988       C  0.88883044  0.65592147  0.63394206     0.04500
C2989       C  0.86615429  0.65775978  0.61129674     0.04500
C2990       C  0.84344922  0.63530545  0.60889043     0.04500
O2991       O  0.97236304  0.71747172  0.59649311    -0.70800
O2992       O  0.53072268  0.78473743  0.60743479    -0.71700
O2993       O  0.53145190  0.72129032  0.59624411    -0.60400
O2994       O  0.97477144  0.78173598  0.59429685    -0.68800
O2995       O  0.96535335  0.78445551  0.64360663    -0.73100
O2996       O  0.53211461  0.71323882  0.64583780    -0.59600
O2997       O  0.53093898  0.77654750  0.65698859    -0.72100
O2998       O  0.96139406  0.72060511  0.64541254    -0.70900
Cu2999     Cu  0.49913675  0.75275014  0.60015219     1.04600
Cu3000     Cu  0.99464520  0.75055562  0.65258445     1.04300
C3001       C  0.95632195  0.70943682  0.61925095     0.95400
C3002       C  0.54071051  0.79088775  0.63391048     0.94600
C3003       C  0.54193952  0.70735708  0.61921322     0.86700
C3004       C  0.96080644  0.79367072  0.61653423     0.93000
C3005       C  0.64358516  0.89969010  0.61928065     0.04500
C3006       C  0.61956498  0.90088932  0.64058238     0.04500
C3007       C  0.59702201  0.87803388  0.64096739     0.04500
C3008       C  0.59762829  0.85488816  0.61858600     0.04500
C3009       C  0.62200054  0.85321875  0.59748639     0.04500
C3010       C  0.64545216  0.87522091  0.59846171     0.04500
O3011       O  0.61080730  0.96291253  0.71786347    -0.70800
O3012       O  0.61487219  0.52937050  0.78344919    -0.71700
O3013       O  0.60548493  0.52657770  0.71930892    -0.60400
O3014       O  0.61813307  0.96204511  0.78147372    -0.68800
O3015       O  0.66790595  0.96784387  0.77597846    -0.68300
O3016       O  0.65544684  0.53022247  0.71312294    -0.59600
O3017       O  0.66476087  0.53160795  0.77678127    -0.72100
O3018       O  0.66071902  0.96877749  0.71323251    -0.70900
Cu3019     Cu  0.61007540  0.49611739  0.75219853     1.04600
Cu3020     Cu  0.66223737  0.00064576  0.74504818     1.04300
C3021       C  0.63608349  0.95571820  0.70559090     0.95400
C3022       C  0.64078956  0.54079092  0.79007336     0.94600
C3023       C  0.62840247  0.53736758  0.70543452     0.86700
C3024       C  0.64528362  0.95414041  0.78777937     0.93000
C3025       C  0.60201627  0.62275537  0.85227555     0.04500
C3026       C  0.59975494  0.64326916  0.87682139     0.04500
C3027       C  0.62056813  0.64095603  0.90131335     0.04500
C3028       C  0.64283552  0.61774523  0.90138741     0.04500
C3029       C  0.64310575  0.59584013  0.87789765     0.04500
C3030       C  0.62241735  0.59815184  0.85352896     0.04500
O3031       O  0.96347059  0.72153268  0.85124145    -0.70800
O3032       O  0.53001363  0.77929355  0.83937316    -0.71700
O3033       O  0.52563696  0.71620439  0.83922941    -0.60400
O3034       O  0.96796091  0.78541853  0.85194357    -0.68800
O3035       O  0.97822596  0.78558081  0.90112755    -0.68300
O3036       O  0.53383222  0.71449697  0.88878198    -0.59600
O3037       O  0.54011049  0.77822400  0.88858211    -0.72100
O3038       O  0.97155009  0.72125026  0.90086857    -0.70900
Cu3039     Cu  0.49554769  0.75019927  0.84376776     1.04600
Cu3040     Cu  0.00682383  0.75040231  0.89688103     1.04300
C3041       C  0.95651979  0.71242596  0.87771426     0.95400
C3042       C  0.54632714  0.78738364  0.86179096     0.94600
C3043       C  0.53958718  0.70517630  0.86204906     0.86700
C3044       C  0.96390992  0.79635859  0.87848170     0.93000
O3045       O  0.71161151  0.60971504  0.53125968    -0.70800
O3046       O  0.77911635  0.59437787  0.96862733    -0.71700
O3047       O  0.77480804  0.59703139  0.53216819    -0.60400
O3048       O  0.71472543  0.60646058  0.96761495    -0.68800
O3049       O  0.72390338  0.65583638  0.96618995    -0.68300
O3050       O  0.78427014  0.64641451  0.53122110    -0.59600
O3051       O  0.78777914  0.64387494  0.96659007    -0.72100
O3052       O  0.72150302  0.65900539  0.53046956    -0.70900
Cu3053     Cu  0.74630658  0.59969598  0.99993394     1.04600
Cu3054     Cu  0.75336105  0.65364726  0.49850704     1.04300
C3055       C  0.70682005  0.63651438  0.54114706     0.95400
C3056       C  0.79418596  0.61686546  0.95838519     0.94600
C3057       C  0.78927681  0.62003893  0.54204609     0.86700
C3058       C  0.70890471  0.63277702  0.95707037     0.93000
O3059       O  0.72719736  0.90954146  0.96512170    -0.70800
O3060       O  0.78879718  0.90159814  0.53434806    -0.71700
O3061       O  0.79133707  0.90310179  0.97194321    -0.60400
O3062       O  0.72429650  0.91123322  0.53133112    -0.68800
O3063       O  0.71695416  0.86150209  0.53021339    -0.68300
O3064       O  0.78589810  0.85313226  0.96896114    -0.59600
O3065       O  0.78107279  0.85192849  0.53240643    -0.72100
O3066       O  0.72221041  0.85952314  0.96332614    -0.70900
Cu3067     Cu  0.75801234  0.90920361  0.50132100     1.04600
Cu3068     Cu  0.75059163  0.85594536  0.49920848     1.04300
C3069       C  0.71532983  0.88580764  0.95352188     0.95400
C3070       C  0.79510814  0.87474442  0.54321518     0.94600
C3071       C  0.79977682  0.87749457  0.96168461     0.86700
C3072       C  0.70966549  0.88787621  0.53989853     0.93000
C3073       C  0.66496038  0.61478872  0.92692570    -0.14200
C3074       C  0.68476837  0.63690521  0.93410160    -0.29400
H3075       H  0.66685605  0.59288355  0.93792192     0.14800
H3076       H  0.68341327  0.65855760  0.92254528     0.15400
C3077       C  0.56371116  0.68268227  0.85721765    -0.14200
C3078       C  0.57321959  0.66424830  0.87948739    -0.29400
H3079       H  0.57491589  0.68286856  0.83542430     0.14800
H3080       H  0.56219894  0.66571004  0.90144113     0.15400
C3081       C  0.64366995  0.56474200  0.81326893    -0.14200
C3082       C  0.62005025  0.57384062  0.83011529    -0.29400
H3083       H  0.66581266  0.57504123  0.81669326     0.14800
H3084       H  0.59781423  0.56407490  0.82595783     0.15400
C3085       C  0.67267882  0.87084540  0.57858337    -0.14200
C3086       C  0.68353081  0.89245202  0.56023536    -0.29400
H3087       H  0.68282794  0.84843745  0.57780167     0.14800
H3088       H  0.67280878  0.91450653  0.55963801     0.15400
C3089       C  0.61705310  0.92708245  0.66161516    -0.14200
C3090       C  0.63776131  0.93121523  0.68338466    -0.29400
H3091       H  0.59708487  0.94146630  0.66055324     0.14800
H3092       H  0.65686619  0.91589399  0.68515784     0.15400
C3093       C  0.56398980  0.81446909  0.63812093    -0.14200
C3094       C  0.57177853  0.83345808  0.61571314    -0.29400
H3095       H  0.57540690  0.81592345  0.65987211     0.14800
H3096       H  0.56091558  0.83145847  0.59372674     0.15400
C3097       C  0.81990073  0.63847475  0.58474917    -0.14200
C3098       C  0.81194305  0.61576758  0.56614682    -0.29400
H3099       H  0.80999957  0.66072204  0.58122411     0.14800
H3100       H  0.82183440  0.59343702  0.56891535     0.15400
C3101       C  0.91158523  0.68069359  0.63703468    -0.14200
C3102       C  0.93199868  0.68679813  0.61519276    -0.29400
H3103       H  0.91306001  0.69225974  0.65869541     0.14800
H3104       H  0.93142629  0.67420997  0.59412257     0.15400
C3105       C  0.88044402  0.56677393  0.68539658    -0.14200
C3106       C  0.85951219  0.58759760  0.67834317    -0.29400
H3107       H  0.90270535  0.56759573  0.67484411     0.14800
H3108       H  0.83714930  0.58631825  0.68865826     0.15400
C3109       C  0.82275356  0.86688080  0.91278459    -0.14200
C3110       C  0.82587606  0.87645868  0.94130451    -0.29400
H3111       H  0.80076204  0.85932360  0.90454796     0.14800
H3112       H  0.84710942  0.88664428  0.94862061     0.15400
C3113       C  0.91784504  0.82496014  0.86598442    -0.14200
C3114       C  0.94257593  0.82167086  0.88331684    -0.29400
H3115       H  0.91324961  0.80859980  0.84820325     0.14800
H3116       H  0.94652213  0.83711151  0.90206240     0.15400
C3117       C  0.85431337  0.92887518  0.80773093    -0.14200
C3118       C  0.87490410  0.92350474  0.82936440    -0.29400
H3119       H  0.83559813  0.91322062  0.80446993     0.14800
H3120       H  0.89409041  0.93873714  0.83204993     0.15400
C3121       C  0.87780275  0.68380735  0.56369931    -0.14200
C3122       C  0.86456894  0.68434509  0.59091219    -0.29400
H3123       H  0.89247834  0.66506705  0.55742810     0.14800
H3124       H  0.85037450  0.70335440  0.59749056     0.15400
C3125       C  0.87609001  0.82589679  0.91723461    -0.14200
C3126       C  0.85319247  0.80976921  0.92939109    -0.29400
H3127       H  0.89863137  0.82325579  0.92673977     0.14800
H3128       H  0.83061873  0.81065515  0.91967420     0.15400
C3129       C  0.61573244  0.69185301  0.92493379    -0.14200
C3130       C  0.61874666  0.66179885  0.92784530    -0.29400
H3131       H  0.61383333  0.70228370  0.90279722     0.14800
H3132       H  0.62267888  0.65250007  0.95027785     0.15400
C3133       C  0.61410650  0.80143105  0.57410988    -0.14200
C3134       C  0.62221343  0.83072225  0.57186025    -0.29400
H3135       H  0.60686130  0.79179765  0.59544667     0.14800
H3136       H  0.63003738  0.83873994  0.54994617     0.15400
C3137       C  0.69438145  0.57368511  0.88137091    -0.14200
C3138       C  0.66431472  0.56971214  0.87924056    -0.29400
H3139       H  0.70410392  0.59626694  0.88222787     0.14800
H3140       H  0.65511854  0.54695578  0.87713142     0.15400
C3141       C  0.81384464  0.93220551  0.89115539    -0.14200
C3142       C  0.82186124  0.91417671  0.86804294    -0.29400
H3143       H  0.82580467  0.93097059  0.91257261     0.14800
H3144       H  0.80932582  0.91568046  0.84702368     0.15400
C3145       C  0.68497341  0.86569384  0.91131433    -0.14200
C3146       C  0.69255510  0.88895313  0.92943256    -0.29400
H3147       H  0.69619572  0.84400210  0.91426471     0.14800
H3148       H  0.68070786  0.91037013  0.92773070     0.15400
C3149       C  0.57283213  0.80695109  0.85592144    -0.14200
C3150       C  0.58468044  0.82504648  0.87722191    -0.29400
H3151       H  0.58215042  0.80710405  0.83318691     0.14800
H3152       H  0.57511754  0.82427835  0.89981942     0.15400
C3153       C  0.62856585  0.91650205  0.82527153    -0.14200
C3154       C  0.65080558  0.92847682  0.80823829    -0.29400
H3155       H  0.60567569  0.92541262  0.82310457     0.14800
H3156       H  0.67350982  0.91902667  0.80873118     0.15400
C3157       C  0.63879019  0.82087873  0.91460005    -0.14200
C3158       C  0.62187033  0.81980734  0.93974693    -0.29400
H3159       H  0.65619121  0.80388608  0.91073301     0.14800
H3160       H  0.60422665  0.83660158  0.94335766     0.15400
C3161       C  0.68245620  0.91268985  0.86538857    -0.14200
C3162       C  0.67922420  0.94083322  0.87618190    -0.29400
H3163       H  0.70438339  0.90519021  0.85697605     0.14800
H3164       H  0.65817057  0.94733979  0.88721414     0.15400
C3165       C  0.57506411  0.88478835  0.69296782    -0.14200
C3166       C  0.57131561  0.87921629  0.66322575    -0.29400
H3167       H  0.59729339  0.88921672  0.70244812     0.14800
H3168       H  0.54867526  0.87356981  0.65521354     0.15400
C3169       C  0.92286986  0.88001534  0.82874404    -0.14200
C3170       C  0.93160127  0.85967347  0.80796977    -0.29400
H3171       H  0.93451524  0.90167331  0.82996720     0.14800
H3172       H  0.91984689  0.83818342  0.80599032     0.15400
C3173       C  0.55822513  0.86732268  0.82493835    -0.14200
C3174       C  0.58846186  0.86584820  0.82199277    -0.29400
H3175       H  0.54810076  0.86994620  0.84718402     0.14800
H3176       H  0.59806978  0.86615352  0.79932729     0.15400
C3177       C  0.84263502  0.88781719  0.56970203    -0.14200
C3178       C  0.81858952  0.86946634  0.56624748    -0.29400
H3179       H  0.84488758  0.90782253  0.55559712     0.14800
H3180       H  0.81580894  0.85008443  0.58104460     0.15400
C3181       C  0.91880465  0.82789914  0.62994616    -0.14200
C3182       C  0.94014541  0.81893762  0.61031419    -0.29400
H3183       H  0.91645638  0.81631945  0.65150095     0.14800
H3184       H  0.94340056  0.83119185  0.58928837     0.15400
C3185       C  0.88182011  0.92844428  0.66842714    -0.14200
C3186       C  0.85620948  0.93762392  0.68222994    -0.29400
H3187       H  0.90356007  0.93777151  0.67539084     0.14800
H3188       H  0.83466073  0.92723727  0.67629988     0.15400
C3189       C  0.86700444  0.81327605  0.57150988    -0.14200
C3190       C  0.88521628  0.83748794  0.57328329    -0.29400
H3191       H  0.84996102  0.80974878  0.58891646     0.14800
H3192       H  0.90132213  0.84213133  0.55527220     0.15400
C3193       C  0.94934045  0.86680677  0.67620417    -0.14200
C3194       C  0.92047132  0.87672257  0.67584423    -0.29400
H3195       H  0.96035103  0.85869050  0.65585763     0.14800
H3196       H  0.91114953  0.88546080  0.69688815     0.15400
C3197       C  0.68926320  0.92884498  0.63457749    -0.14200
C3198       C  0.66473634  0.92585874  0.61686335    -0.29400
H3199       H  0.69449951  0.91159336  0.65123571     0.14800
H3200       H  0.65908290  0.94360988  0.60084481     0.15400
C3201       C  0.82219218  0.55897786  0.62932019    -0.14200
C3202       C  0.81714546  0.58894082  0.62891019    -0.29400
H3203       H  0.84517232  0.55018435  0.63044679     0.14800
H3204       H  0.79401058  0.59726177  0.62693962     0.15400
C3205       C  0.81195309  0.92966801  0.61388207    -0.14200
C3206       C  0.84200052  0.93344333  0.61643296    -0.29400
H3207       H  0.80215092  0.90723272  0.61186927     0.14800
H3208       H  0.85106431  0.95597840  0.62056915     0.15400
C3209       C  0.82791695  0.63051030  0.91604885    -0.14200
C3210       C  0.82027388  0.61129273  0.93824910    -0.29400
H3211       H  0.81337414  0.64976944  0.91150214     0.14800
H3212       H  0.83388059  0.59125820  0.94229174     0.15400
C3213       C  0.93295496  0.66218127  0.88085120    -0.14200
C3214       C  0.93012470  0.69243588  0.88127883    -0.29400
H3215       H  0.95545178  0.65238594  0.87836282     0.14800
H3216       H  0.90777210  0.70276728  0.88100969     0.15400
C3217       C  0.86113038  0.56792347  0.81292843    -0.14200
C3218       C  0.88220250  0.57196947  0.83437665    -0.29400
H3219       H  0.84177717  0.58308039  0.81175914     0.14800
H3220       H  0.90186786  0.55716244  0.83502133     0.15400
C3221       C  0.88381028  0.66675753  0.92539636    -0.14200
C3222       C  0.86245058  0.68740896  0.93166939    -0.29400
H3223       H  0.90446944  0.66629057  0.93882741     0.14800
H3224       H  0.84250469  0.68927080  0.91750057     0.15400
C3225       C  0.82872870  0.58199116  0.87222275    -0.14200
C3226       C  0.82588180  0.55769897  0.88999207    -0.29400
H3227       H  0.81102798  0.58768526  0.85609661     0.14800
H3228       H  0.84295717  0.55298360  0.90707532     0.15400
C3229       C  0.68500668  0.64173180  0.56586657    -0.14200
C3230       C  0.66507678  0.62045414  0.57458241    -0.29400
H3231       H  0.68621671  0.66313970  0.57792020     0.14800
H3232       H  0.66461906  0.59887399  0.56279489     0.15400
C3233       C  0.58503548  0.67604936  0.63589662    -0.14200
C3234       C  0.56508958  0.68385004  0.61435788    -0.29400
H3235       H  0.58394519  0.68730761  0.65772086     0.14800
H3236       H  0.56559251  0.67265650  0.59248987     0.15400
C3237       C  0.63595448  0.58462107  0.67807863    -0.14200
C3238       C  0.62325588  0.55726186  0.67953159    -0.29400
H3239       H  0.65012187  0.59277428  0.69649990     0.14800
H3240       H  0.60763783  0.54989793  0.66197345     0.15400
C3241       C  0.62668358  0.67467000  0.58406195    -0.14200
C3242       C  0.61772223  0.67169969  0.55518553    -0.29400
H3243       H  0.63291231  0.69691787  0.59258524     0.14800
H3244       H  0.60868354  0.65023184  0.54723612     0.15400
C3245       C  0.67026174  0.57611328  0.62151434    -0.14200
C3246       C  0.69182109  0.56940767  0.64197842    -0.29400
H3247       H  0.66895889  0.56285374  0.60084966     0.14800
H3248       H  0.69376787  0.58275970  0.66251336     0.15400
C3249       C  0.94012700  0.63522167  0.67831007    -0.14200
C3250       C  0.91008118  0.63057154  0.68131995    -0.29400
H3251       H  0.94993835  0.64101840  0.65659862     0.14800
H3252       H  0.90160693  0.62382023  0.70339875     0.15400
C3253       C  0.58272088  0.62655934  0.82510396    -0.14200
C3254       C  0.55676395  0.61132975  0.82234175    -0.29400
H3255       H  0.59039677  0.64147535  0.80713535     0.14800
H3256       H  0.55041899  0.59502695  0.83963354     0.15400
C3257       C  0.93031357  0.61471820  0.83481283    -0.14200
C3258       C  0.93599399  0.63620425  0.81412845    -0.29400
H3259       H  0.94182550  0.59303738  0.83315219     0.14800
H3260       H  0.92470986  0.65801778  0.81567984     0.15400
C3261       C  0.58719808  0.62904333  0.68064011    -0.14200
C3262       C  0.56780739  0.60624872  0.68700604    -0.29400
H3263       H  0.58557840  0.64996763  0.69344319     0.14800
H3264       H  0.56859179  0.58544690  0.67400039     0.15400
loop_ 
_geom_bond_atom_site_label_1 
_geom_bond_atom_site_label_2 
_geom_bond_distance 
_geom_bond_site_symmetry_2 
_ccdc_geom_bond_type 
O1           C11   1.272       .  A
O1        Cu1641   1.985       .  S
O2           C12   1.275       .  A
O2           Cu9   1.999   1_455  S
O3           C13   1.282       .  A
O3        Cu1641   2.036       .  S
O4           C14   1.279       .  A
O4           Cu9   2.020   1_455  S
O5           C14   1.277       .  A
O5        Cu1642   2.007       .  S
O6           C13   1.274       .  A
O6          Cu10   1.997       .  S
O7           C12   1.280       .  A
O7        Cu1642   2.022       .  S
O8           C11   1.282       .  A
O8          Cu10   2.031       .  S
Cu9        O1633   1.991       .  S
Cu9        O1635   2.024       .  S
Cu9       Cu1642   2.375   1_655  S
Cu10       O1637   1.991       .  S
Cu10       O1639   2.036       .  S
Cu10      Cu1641   2.376       .  S
C11         C393   1.467       .  S
C12         C398   1.472       .  S
C13         C402   1.475       .  S
C14         C406   1.477       .  S
C15         C389   1.496       .  S
C15          C16   1.419       .  A
C15          C20   1.414       .  A
C16         C381   1.481       .  S
C16          C17   1.419       .  A
C17         C405   1.496       .  S
C17          C18   1.419       .  A
C18         C377   1.482       .  S
C18          C19   1.410       .  A
C19         C385   1.487       .  S
C19          C20   1.411       .  A
C20         C374   1.487       .  S
C21         C401   1.491       .  S
C21          C22   1.418       .  A
C21          C26   1.423       .  A
C22         C362   1.501       .  S
C22          C23   1.419       .  A
C23         C369   1.482       .  S
C23          C24   1.413       .  A
C24         C353   1.493       .  S
C24          C25   1.414       .  A
C25         C365   1.500       .  S
C25          C26   1.422       .  A
C26         C357   1.488       .  S
O27          C37   1.276       .  A
O27        Cu851   2.003       .  S
O28          C38   1.278       .  A
O28         Cu35   2.011   1_545  S
O29          C39   1.276       .  A
O29         Cu35   2.003   1_545  S
O30          C40   1.279       .  A
O30        Cu851   2.005       .  S
O31          C40   1.275       .  A
O31         Cu36   1.999       .  S
O32          C39   1.280       .  A
O32        Cu852   2.017       .  S
O33          C38   1.275       .  A
O33        Cu852   2.002       .  S
O34          C37   1.280       .  A
O34         Cu36   2.016       .  S
Cu35        O843   2.017       .  S
Cu35        O846   1.992       .  S
Cu35       Cu852   2.378   1_565  S
Cu36        O848   2.014       .  S
Cu36        O849   2.008       .  S
Cu36       Cu851   2.377       .  S
C37         C341   1.475       .  S
C38         C345   1.464       .  S
C39         C390   1.474       .  S
C40         C349   1.467       .  S
C41         C350   1.484       .  S
C41          C42   1.412       .  A
C41          C46   1.417       .  A
C42         C321   1.481       .  S
C42          C43   1.414       .  A
C43         C334   1.489       .  S
C43          C44   1.419       .  A
C44         C325   1.497       .  S
C44          C45   1.422       .  A
C45         C338   1.490       .  S
C45          C46   1.419       .  A
C46         C329   1.502       .  S
O47          C57   1.282       .  A
O47       Cu1687   2.034       .  S
O48          C58   1.279       .  A
O48         Cu55   2.022       .  S
O49          C59   1.273       .  A
O49       Cu1687   1.990       .  S
O50          C60   1.277       .  A
O50         Cu55   2.005       .  S
O51          C60   1.275       .  A
O51       Cu1688   2.005       .  S
O52          C59   1.282       .  A
O52         Cu56   2.032       .  S
O53          C58   1.277       .  A
O53       Cu1688   1.991       .  S
O54          C57   1.273       .  A
O54         Cu56   1.994       .  S
Cu55       O1679   2.018       .  S
Cu55       O1681   2.007       .  S
Cu55      Cu1688   2.376       .  S
Cu56       O1683   2.031   1_455  S
Cu56       O1685   1.971   1_455  S
Cu56      Cu1687   2.375       .  S
C57         C317   1.472       .  S
C58         C337   1.475       .  S
C59         C309   1.471       .  S
C60         C314   1.462       .  S
C61         C294   1.507       .  S
C61          C62   1.418       .  A
C61          C66   1.427       .  A
C62         C318   1.493       .  S
C62          C63   1.420       .  A
C63         C297   1.498       .  S
C63          C64   1.418       .  A
C64         C305   1.487       .  S
C64          C65   1.417       .  A
C65         C289   1.495       .  S
C65          C66   1.420       .  A
C66         C301   1.491       .  S
O67          C77   1.276       .  A
O67        Cu891   2.003   1_545  S
O68          C78   1.277       .  A
O68         Cu75   2.001       .  S
O69          C79   1.279       .  A
O69         Cu75   2.025       .  S
O70          C80   1.277       .  A
O70        Cu891   2.007   1_545  S
O71          C80   1.275       .  A
O71         Cu76   2.000       .  S
O72          C79   1.275       .  A
O72        Cu892   1.996       .  S
O73          C78   1.279       .  A
O73        Cu892   2.023       .  S
O74          C77   1.279       .  A
O74         Cu76   2.013       .  S
Cu75        O883   2.001       .  S
Cu75        O886   2.015       .  S
Cu75       Cu892   2.377       .  S
Cu76        O888   1.994   1_545  S
Cu76        O889   2.018   1_545  S
Cu76       Cu891   2.379   1_545  S
C77         C281   1.470       .  S
C78         C285   1.479       .  S
C79         C306   1.466       .  S
C80         C370   1.460       .  S
O81          C91   1.276       .  A
O81        Cu497   2.005       .  S
O82          C92   1.276       .  A
O82         Cu89   2.014   1_554  S
O83          C93   1.281       .  A
O83         Cu89   2.021   1_554  S
O84          C94   1.280       .  A
O84        Cu497   2.029       .  S
O85          C94   1.276       .  A
O85         Cu90   2.008       .  S
O86          C93   1.275       .  A
O86        Cu498   2.005       .  S
O87          C92   1.279       .  A
O87        Cu498   2.012       .  S
O88          C91   1.280       .  A
O88         Cu90   2.021       .  S
Cu89        O489   2.004       .  S
Cu89        O492   2.014       .  S
Cu89       Cu498   2.376   1_556  S
Cu90        O494   1.998       .  S
Cu90        O495   2.029       .  S
Cu90       Cu497   2.374       .  S
C91         C302   1.474       .  S
C92         C386   1.474       .  S
C93         C277   1.477       .  S
C94         C273   1.473       .  S
O95         C105   1.277       .  A
O95        Cu511   2.000   1_554  S
O96         C106   1.276       .  A
O96        Cu103   2.006       .  S
O97         C107   1.278       .  A
O97        Cu103   2.000       .  S
O98         C108   1.280       .  A
O98        Cu511   2.031   1_554  S
O99         C108   1.277       .  A
O99        Cu104   1.994       .  S
O100        C107   1.276       .  A
O100       Cu512   2.007       .  S
O101        C106   1.278       .  A
O101       Cu512   2.008       .  S
O102        C105   1.278       .  A
O102       Cu104   2.014       .  S
Cu103       O503   2.012       .  S
Cu103       O506   2.021       .  S
Cu103      Cu512   2.376       .  S
Cu104       O508   1.996   1_554  S
Cu104       O509   2.012   1_554  S
Cu104      Cu511   2.376   1_554  S
C105        C333   1.472       .  S
C106        C366   1.466       .  S
C107        C270   1.471       .  S
C108        C265   1.478       .  S
C109        C286   1.500       .  S
C109        C110   1.423       .  A
C109        C114   1.417       .  A
C110        C262   1.495       .  S
C110        C111   1.420       .  A
C111        C313   1.489       .  S
C111        C112   1.415       .  A
C112        C257   1.503       .  S
C112        C113   1.416       .  A
C113        C269   1.485       .  S
C113        C114   1.420       .  A
C114        C253   1.485       .  S
O115        C125   1.280       .  A
O115       Cu939   2.030       .  S
O116        C126   1.282       .  A
O116       Cu123   2.032       .  S
O117        C127   1.277       .  A
O117       Cu123   2.007       .  S
O118        C128   1.279       .  A
O118       Cu939   2.021       .  S
O119        C128   1.278       .  A
O119       Cu124   2.012       .  S
O120        C127   1.278       .  A
O120       Cu940   2.009   1_545  S
O121        C126   1.275       .  A
O121       Cu940   1.996   1_545  S
O122        C125   1.275       .  A
O122       Cu124   1.998       .  S
Cu123       O931   2.031   1_545  S
Cu123       O934   2.015   1_545  S
Cu123      Cu940   2.375   1_545  S
Cu124       O936   2.012       .  S
Cu124       O937   2.000       .  S
Cu124      Cu939   2.375       .  S
C125        C261   1.472       .  S
C126        C249   1.477       .  S
C127        C361   1.472       .  S
C128        C330   1.478       .  S
C129        C346   1.481       .  S
C129        C130   1.421       .  A
C129        C134   1.415       .  A
C130        C250   1.501       .  S
C130        C131   1.421       .  A
C131        C394   1.488       .  S
C131        C132   1.418       .  A
C132        C245   1.489       .  S
C132        C133   1.415       .  A
C133        C266   1.493       .  S
C133        C134   1.414       .  A
C134        C241   1.493       .  S
O135        C145   1.273       .  A
O135      Cu1775   1.985       .  S
O136        C146   1.276       .  A
O136       Cu143   2.004       .  S
O137        C147   1.281       .  A
O137       Cu143   2.016       .  S
O138        C148   1.278       .  A
O138      Cu1775   2.019       .  S
O139        C148   1.276       .  A
O139       Cu144   2.003       .  S
O140        C147   1.274       .  A
O140      Cu1776   1.998       .  S
O141        C146   1.280       .  A
O141      Cu1776   2.022       .  S
O142        C145   1.279       .  A
O142       Cu144   2.022       .  S
Cu143      O1767   1.987   1_455  S
Cu143      O1770   2.012   1_455  S
Cu143     Cu1776   2.377       .  S
Cu144      O1772   2.003       .  S
Cu144      O1773   2.008       .  S
Cu144     Cu1775   2.378       .  S
C145        C246   1.460       .  S
C146        C237   1.473       .  S
C147        C378   1.471       .  S
C148        C326   1.467       .  S
C149        C342   1.494       .  S
C149        C150   1.415       .  A
C149        C154   1.419       .  A
C150        C233   1.490       .  S
C150        C151   1.415       .  A
C151        C310   1.490       .  S
C151        C152   1.416       .  A
C152        C238   1.492       .  S
C152        C153   1.419       .  A
C153        C278   1.490       .  S
C153        C154   1.417       .  A
C154        C229   1.490       .  S
O155        C165   1.275       .  A
O155       Cu979   1.998       .  S
O156        C166   1.281       .  A
O156       Cu163   2.032   1_545  S
O157        C167   1.274       .  A
O157       Cu163   1.994   1_545  S
O158        C168   1.279       .  A
O158       Cu979   2.007       .  S
O159        C168   1.278       .  A
O159       Cu164   2.015       .  S
O160        C167   1.279       .  A
O160       Cu980   2.017       .  S
O161        C166   1.274       .  A
O161       Cu980   1.998       .  S
O162        C165   1.277       .  A
O162       Cu164   2.010       .  S
Cu163       O971   2.015       .  S
Cu163       O974   1.999       .  S
Cu163      Cu980   2.378   1_565  S
Cu164       O976   2.008       .  S
Cu164       O977   2.016       .  S
Cu164      Cu979   2.375       .  S
C165        C234   1.459       .  S
C166        C225   1.474       .  S
C167        C382   1.463       .  S
C168        C298   1.478       .  S
C169        C397   1.493       .  S
C169        C170   1.415       .  A
C169        C174   1.416       .  A
C170        C222   1.485       .  S
C170        C171   1.425       .  A
C171        C274   1.498       .  S
C171        C172   1.417       .  A
C172        C217   1.493       .  S
C172        C173   1.413       .  A
C173        C282   1.487       .  S
C173        C174   1.414       .  A
C174        C226   1.488       .  S
O175        C185   1.276       .  A
O175      Cu1815   2.006       .  S
O176        C186   1.273       .  A
O176       Cu183   1.992       .  S
O177        C187   1.284       .  A
O177       Cu183   2.046       .  S
O178        C188   1.280       .  A
O178      Cu1815   2.023       .  S
O179        C188   1.278       .  A
O179       Cu184   2.019       .  S
O180        C187   1.268       .  A
O180      Cu1816   1.960       .  S
O181        C186   1.282       .  A
O181      Cu1816   2.042       .  S
O182        C185   1.281       .  A
O182       Cu184   2.028       .  S
Cu183      O1807   1.990   1_455  S
Cu183      O1810   2.049   1_455  S
Cu183     Cu1816   2.374       .  S
Cu184      O1812   1.984       .  S
Cu184      O1813   2.021       .  S
Cu184     Cu1815   2.376       .  S
C185        C358   1.477       .  S
C186        C293   1.474       .  S
C187        C221   1.465       .  S
C188        C258   1.483       .  S
O189        C199   1.277       .  A
O189       Cu605   1.995       .  S
O190        C200   1.275       .  A
O190       Cu197   1.996       .  S
O191        C201   1.278       .  A
O191       Cu605   2.016       .  S
O192        C202   1.279       .  A
O192       Cu197   2.009       .  S
O193        C202   1.277       .  A
O193       Cu606   2.015       .  S
O194        C201   1.277       .  A
O194       Cu198   2.004   1_554  S
O195        C200   1.278       .  A
O195       Cu606   2.007       .  S
O196        C199   1.277       .  A
O196       Cu198   2.005   1_554  S
Cu197       O597   1.992       .  S
Cu197       O599   2.007       .  S
Cu197      Cu606   2.377       .  S
Cu198       O601   2.009       .  S
Cu198       O603   2.012       .  S
Cu198      Cu605   2.376   1_556  S
C199        C373   1.467       .  S
C200        C354   1.468       .  S
C201        C242   1.472       .  S
C202        C218   1.477       .  S
O203        C213   1.280       .  A
O203       Cu619   2.025       .  S
O204        C214   1.279       .  A
O204       Cu211   2.012   1_554  S
O205        C215   1.272       .  A
O205       Cu619   1.981       .  S
O206        C216   1.274       .  A
O206       Cu211   1.994   1_554  S
O207        C216   1.280       .  A
O207       Cu212   2.025   1_554  S
O208        C215   1.280       .  A
O208       Cu620   2.027       .  S
O209        C214   1.274       .  A
O209       Cu212   1.998   1_554  S
O210        C213   1.275       .  A
O210       Cu620   1.992       .  S
Cu211       O611   2.008       .  S
Cu211       O613   1.996       .  S
Cu211      Cu212   2.378       .  S
Cu212       O616   2.032       .  S
Cu212       O618   1.994       .  S
C213        C290   1.474       .  S
C214        C322   1.464       .  S
C215        C254   1.461       .  S
C216        C230   1.469       .  S
C217        C218   1.344       .  D
C217        H219   1.086       .  S
C218        H220   1.086       .  S
C221        C222   1.333       .  D
C221        H223   1.088       .  S
C222        H224   1.086       .  S
C225        C226   1.338       .  D
C225        H227   1.086       .  S
C226        H228   1.086       .  S
C229        C230   1.337       .  D
C229        H231   1.086       .  S
C230        H232   1.086       .  S
C233        C234   1.338       .  D
C233        H235   1.087       .  S
C234        H236   1.086       .  S
C237        C238   1.340       .  D
C237        H239   1.084       .  S
C238        H240   1.085       .  S
C241        C242   1.343       .  D
C241        H243   1.086       .  S
C242        H244   1.084       .  S
C245        C246   1.340       .  D
C245        H247   1.087       .  S
C246        H248   1.086       .  S
C249        C250   1.342       .  D
C249        H251   1.084       .  S
C250        H252   1.083       .  S
C253        C254   1.335       .  D
C253        H255   1.087       .  S
C254        H256   1.087       .  S
C257        C258   1.345       .  D
C257        H259   1.087       .  S
C258        H260   1.082       .  S
C261        C262   1.342       .  D
C261        H263   1.086       .  S
C262        H264   1.086       .  S
C265        C266   1.347       .  D
C265        H267   1.086       .  S
C266        H268   1.086       .  S
C269        C270   1.340       .  D
C269        H271   1.083       .  S
C270        H272   1.086       .  S
C273        C274   1.341       .  D
C273        H275   1.085       .  S
C274        H276   1.088       .  S
C277        C278   1.340       .  D
C277        H279   1.086       .  S
C278        H280   1.084       .  S
C281        C282   1.341       .  D
C281        H283   1.085       .  S
C282        H284   1.087       .  S
C285        C286   1.347       .  D
C285        H287   1.085       .  S
C286        H288   1.081       .  S
C289        C290   1.348       .  D
C289        H291   1.086       .  S
C290        H292   1.084       .  S
C293        C294   1.344       .  D
C293        H295   1.083       .  S
C294        H296   1.088       .  S
C297        C298   1.345       .  D
C297        H299   1.083       .  S
C298        H300   1.085       .  S
C301        C302   1.341       .  D
C301        H303   1.086       .  S
C302        H304   1.087       .  S
C305        C306   1.338       .  D
C305        H307   1.087       .  S
C306        H308   1.087       .  S
C309        C310   1.340       .  D
C309        H311   1.086       .  S
C310        H312   1.087       .  S
C313        C314   1.337       .  D
C313        H315   1.088       .  S
C314        H316   1.085       .  S
C317        C318   1.338       .  D
C317        H319   1.086       .  S
C318        H320   1.087       .  S
C321        C322   1.336       .  D
C321        H323   1.087       .  S
C322        H324   1.086       .  S
C325        C326   1.344       .  D
C325        H327   1.087       .  S
C326        H328   1.084       .  S
C329        C330   1.345       .  D
C329        H331   1.086       .  S
C330        H332   1.083       .  S
C333        C334   1.345       .  D
C333        H335   1.085       .  S
C334        H336   1.087       .  S
C337        C338   1.346       .  D
C337        H339   1.086       .  S
C338        H340   1.085       .  S
C341        C342   1.343       .  D
C341        H343   1.087       .  S
C342        H344   1.083       .  S
C345        C346   1.335       .  D
C345        H347   1.086       .  S
C346        H348   1.087       .  S
C349        C350   1.337       .  D
C349        H351   1.086       .  S
C350        H352   1.083       .  S
C353        C354   1.341       .  D
C353        H355   1.087       .  S
C354        H356   1.084       .  S
C357        C358   1.346       .  D
C357        H359   1.086       .  S
C358        H360   1.086       .  S
C361        C362   1.346       .  D
C361        H363   1.084       .  S
C362        H364   1.086       .  S
C365        C366   1.339       .  D
C365        H367   1.088       .  S
C366        H368   1.080       .  S
C369        C370   1.336       .  D
C369        H371   1.087       .  S
C370        H372   1.087       .  S
C373        C374   1.342       .  D
C373        H375   1.084       .  S
C374        H376   1.086       .  S
C377        C378   1.338       .  D
C377        H379   1.086       .  S
C378        H380   1.086       .  S
C381        C382   1.335       .  D
C381        H383   1.087       .  S
C382        H384   1.087       .  S
C385        C386   1.339       .  D
C385        H387   1.086       .  S
C386        H388   1.086       .  S
C389        C390   1.342       .  D
C389        H391   1.086       .  S
C390        H392   1.085       .  S
C393        C394   1.337       .  D
C393        H395   1.086       .  S
C394        H396   1.087       .  S
C397        C398   1.342       .  D
C397        H399   1.086       .  S
C398        H400   1.086       .  S
C401        C402   1.340       .  D
C401        H403   1.086       .  S
C402        H404   1.085       .  S
C405        C406   1.347       .  D
C405        H407   1.084       .  S
C406        H408   1.084       .  S
O409        C419   1.275       .  A
O409      Cu2049   1.999       .  S
O410        C420   1.271       .  A
O410       Cu417   1.977   1_455  S
O411        C421   1.281       .  A
O411      Cu2049   2.026       .  S
O412        C422   1.282       .  A
O412       Cu417   2.038   1_455  S
O413        C422   1.274       .  A
O413      Cu2050   1.995       .  S
O414        C421   1.275       .  A
O414       Cu418   2.001       .  S
O415        C420   1.283       .  A
O415      Cu2050   2.038       .  S
O416        C419   1.280       .  A
O416       Cu418   2.015       .  S
Cu417      O2041   1.989       .  S
Cu417      O2043   2.037       .  S
Cu417     Cu2050   2.376   1_655  S
Cu418      O2045   1.992       .  S
Cu418      O2047   2.010       .  S
Cu418     Cu2049   2.377       .  S
C419        C801   1.470       .  S
C420        C806   1.468       .  S
C421        C810   1.475       .  S
C422        C814   1.478       .  S
C423        C797   1.494       .  S
C423        C424   1.414       .  A
C423        C428   1.408       .  A
C424        C789   1.479       .  S
C424        C425   1.417       .  A
C425        C813   1.496       .  S
C425        C426   1.427       .  A
C426        C785   1.493       .  S
C426        C427   1.418       .  A
C427        C793   1.492       .  S
C427        C428   1.411       .  A
C428        C782   1.481       .  S
C429        C809   1.487       .  S
C429        C430   1.421       .  A
C429        C434   1.422       .  A
C430        C770   1.506       .  S
C430        C431   1.424       .  A
C431        C777   1.483       .  S
C431        C432   1.414       .  A
C432        C761   1.491       .  S
C432        C433   1.408       .  A
C433        C773   1.490       .  S
C433        C434   1.414       .  A
C434        C765   1.491       .  S
O435        C445   1.279       .  A
O435      Cu1259   2.023       .  S
O436        C446   1.278       .  A
O436       Cu443   2.009   1_545  S
O437        C447   1.275       .  A
O437       Cu443   2.000   1_545  S
O438        C448   1.273       .  A
O438      Cu1259   1.986       .  S
O439        C448   1.278       .  A
O439       Cu444   2.013       .  S
O440        C447   1.280       .  A
O440      Cu1260   2.020   1_545  S
O441        C446   1.277       .  A
O441      Cu1260   2.013   1_545  S
O442        C445   1.276       .  A
O442       Cu444   1.996       .  S
Cu443      O1251   2.020       .  S
Cu443      O1254   1.991       .  S
Cu443     Cu1260   2.376       .  S
Cu444      O1256   2.021       .  S
Cu444      O1257   2.006       .  S
Cu444     Cu1259   2.375       .  S
C445        C749   1.473       .  S
C446        C753   1.469       .  S
C447        C798   1.473       .  S
C448        C757   1.457       .  S
C449        C758   1.493       .  S
C449        C450   1.413       .  A
C449        C454   1.418       .  A
C450        C729   1.484       .  S
C450        C451   1.411       .  A
C451        C742   1.487       .  S
C451        C452   1.419       .  A
C452        C733   1.491       .  S
C452        C453   1.426       .  A
C453        C746   1.503       .  S
C453        C454   1.422       .  A
C454        C737   1.498       .  S
O455        C465   1.283       .  A
O455      Cu2095   2.043       .  S
O456        C466   1.279       .  A
O456       Cu463   2.025       .  S
O457        C467   1.272       .  A
O457      Cu2095   1.984       .  S
O458        C468   1.275       .  A
O458       Cu463   2.002       .  S
O459        C468   1.279       .  A
O459      Cu2096   2.012       .  S
O460        C467   1.281       .  A
O460       Cu464   2.033       .  S
O461        C466   1.276       .  A
O461      Cu2096   2.000       .  S
O462        C465   1.272       .  A
O462       Cu464   1.989       .  S
Cu463      O2087   2.032       .  S
Cu463      O2089   1.986       .  S
Cu463     Cu2096   2.375       .  S
Cu464      O2091   2.035   1_455  S
Cu464      O2093   1.997   1_455  S
Cu464     Cu2095   2.375       .  S
C465        C725   1.472       .  S
C466        C745   1.470       .  S
C467        C717   1.465       .  S
C468        C722   1.469       .  S
C469        C702   1.494       .  S
C469        C470   1.421       .  A
C469        C474   1.415       .  A
C470        C726   1.487       .  S
C470        C471   1.418       .  A
C471        C705   1.505       .  S
C471        C472   1.420       .  A
C472        C713   1.480       .  S
C472        C473   1.420       .  A
C473        C697   1.489       .  S
C473        C474   1.416       .  A
C474        C709   1.500       .  S
O475        C485   1.276       .  A
O475      Cu1299   2.010   1_545  S
O476        C486   1.278       .  A
O476       Cu483   2.001       .  S
O477        C487   1.278       .  A
O477       Cu483   2.009       .  S
O478        C488   1.276       .  A
O478      Cu1299   2.003   1_545  S
O479        C488   1.276       .  A
O479       Cu484   1.999       .  S
O480        C487   1.275       .  A
O480      Cu1300   2.001       .  S
O481        C486   1.278       .  A
O481      Cu1300   2.020       .  S
O482        C485   1.277       .  A
O482       Cu484   2.002       .  S
Cu483      O1291   2.007       .  S
Cu483      O1294   2.005       .  S
Cu483     Cu1300   2.378       .  S
Cu484      O1296   2.002   1_545  S
Cu484      O1297   2.010   1_545  S
Cu484     Cu1299   2.379   1_545  S
C485        C689   1.465       .  S
C486        C693   1.476       .  S
C487        C714   1.463       .  S
C488        C778   1.458       .  S
O489        C499   1.276       .  A
O490        C500   1.275       .  A
O490       Cu497   2.006       .  S
O491        C501   1.279       .  A
O491       Cu497   2.019       .  S
O492        C502   1.277       .  A
O493        C502   1.277       .  A
O493       Cu498   2.011   1_556  S
O494        C501   1.275       .  A
O495        C500   1.282       .  A
O496        C499   1.279       .  A
O496       Cu498   2.029   1_556  S
C499        C710   1.472       .  S
C500        C794   1.478       .  S
C501        C685   1.465       .  S
C502        C681   1.468       .  S
O503        C513   1.279       .  A
O504        C514   1.274       .  A
O504       Cu511   1.995       .  S
O505        C515   1.280       .  A
O505       Cu511   2.011       .  S
O506        C516   1.278       .  A
O507        C516   1.276       .  A
O507       Cu512   1.991       .  S
O508        C515   1.275       .  A
O509        C514   1.279       .  A
O510        C513   1.277       .  A
O510       Cu512   2.014       .  S
C513        C741   1.475       .  S
C514        C774   1.462       .  S
C515        C678   1.471       .  S
C516        C673   1.471       .  S
C517        C694   1.493       .  S
C517        C518   1.419       .  A
C517        C522   1.416       .  A
C518        C670   1.490       .  S
C518        C519   1.412       .  A
C519        C721   1.491       .  S
C519        C520   1.416       .  A
C520        C665   1.492       .  S
C520        C521   1.417       .  A
C521        C677   1.489       .  S
C521        C522   1.421       .  A
C522        C661   1.487       .  S
O523        C533   1.279       .  A
O523      Cu1347   2.016       .  S
O524        C534   1.281       .  A
O524       Cu531   2.028       .  S
O525        C535   1.278       .  A
O525       Cu531   2.013       .  S
O526        C536   1.278       .  A
O526      Cu1347   2.014       .  S
O527        C536   1.277       .  A
O527       Cu532   2.006       .  S
O528        C535   1.279       .  A
O528      Cu1348   2.020       .  S
O529        C534   1.273       .  A
O529      Cu1348   1.990       .  S
O530        C533   1.275       .  A
O530       Cu532   2.000       .  S
Cu531      O1339   2.027   1_545  S
Cu531      O1342   2.014   1_545  S
Cu531     Cu1348   2.375       .  S
Cu532      O1344   2.001       .  S
Cu532      O1345   1.998       .  S
Cu532     Cu1347   2.376       .  S
C533        C669   1.469       .  S
C534        C657   1.471       .  S
C535        C769   1.479       .  S
C536        C738   1.474       .  S
C537        C754   1.485       .  S
C537        C538   1.419       .  A
C537        C542   1.416       .  A
C538        C658   1.491       .  S
C538        C539   1.420       .  A
C539        C802   1.491       .  S
C539        C540   1.413       .  A
C540        C653   1.486       .  S
C540        C541   1.413       .  A
C541        C674   1.487       .  S
C541        C542   1.414       .  A
C542        C649   1.491       .  S
O543        C553   1.276       .  A
O543      Cu2183   2.005       .  S
O544        C554   1.279       .  A
O544       Cu551   2.004       .  S
O545        C555   1.276       .  A
O545       Cu551   1.996       .  S
O546        C556   1.276       .  A
O546      Cu2183   2.002       .  S
O547        C556   1.278       .  A
O547       Cu552   2.009       .  S
O548        C555   1.276       .  A
O548      Cu2184   2.006   1_455  S
O549        C554   1.277       .  A
O549      Cu2184   2.013   1_455  S
O550        C553   1.279       .  A
O550       Cu552   2.017       .  S
Cu551      O2175   2.013   1_455  S
Cu551      O2178   1.999   1_455  S
Cu551     Cu2184   2.376   1_455  S
Cu552      O2180   2.013       .  S
Cu552      O2181   2.011       .  S
Cu552     Cu2183   2.377       .  S
C553        C654   1.471       .  S
C554        C645   1.474       .  S
C555        C786   1.461       .  S
C556        C734   1.471       .  S
C557        C750   1.487       .  S
C557        C558   1.418       .  A
C557        C562   1.418       .  A
C558        C641   1.485       .  S
C558        C559   1.418       .  A
C559        C718   1.501       .  S
C559        C560   1.422       .  A
C560        C646   1.488       .  S
C560        C561   1.423       .  A
C561        C686   1.499       .  S
C561        C562   1.414       .  A
C562        C637   1.498       .  S
O563        C573   1.279       .  A
O563      Cu1387   2.014       .  S
O564        C574   1.281       .  A
O564       Cu571   2.031   1_545  S
O565        C575   1.274       .  A
O565       Cu571   1.996   1_545  S
O566        C576   1.278       .  A
O566      Cu1387   2.008       .  S
O567        C576   1.280       .  A
O567       Cu572   2.022       .  S
O568        C575   1.278       .  A
O568      Cu1388   2.009       .  S
O569        C574   1.275       .  A
O569      Cu1388   1.997       .  S
O570        C573   1.274       .  A
O570       Cu572   1.989       .  S
Cu571      O1379   2.012       .  S
Cu571      O1382   2.006       .  S
Cu571     Cu1388   2.378   1_565  S
Cu572      O1384   2.026       .  S
Cu572      O1385   2.000       .  S
Cu572     Cu1387   2.376       .  S
C573        C642   1.461       .  S
C574        C633   1.475       .  S
C575        C790   1.462       .  S
C576        C706   1.480       .  S
C577        C805   1.485       .  S
C577        C578   1.421       .  A
C577        C582   1.413       .  A
C578        C630   1.494       .  S
C578        C579   1.425       .  A
C579        C682   1.498       .  S
C579        C580   1.420       .  A
C580        C625   1.495       .  S
C580        C581   1.412       .  A
C581        C690   1.483       .  S
C581        C582   1.412       .  A
C582        C634   1.491       .  S
O583        C593   1.273       .  A
O583      Cu2223   1.988       .  S
O584        C594   1.274       .  A
O584       Cu591   1.990   1_455  S
O585        C595   1.278       .  A
O585       Cu591   2.010   1_455  S
O586        C596   1.282       .  A
O586      Cu2223   2.033       .  S
O587        C596   1.274       .  A
O587       Cu592   2.002       .  S
O588        C595   1.276       .  A
O588      Cu2224   1.999       .  S
O589        C594   1.281       .  A
O589      Cu2224   2.021       .  S
O590        C593   1.283       .  A
O590       Cu592   2.049       .  S
Cu591      O2215   1.998       .  S
Cu591      O2218   2.026       .  S
Cu591     Cu2224   2.376   1_655  S
Cu592      O2220   1.985       .  S
Cu592      O2221   2.042       .  S
Cu592     Cu2223   2.375       .  S
C593        C766   1.475       .  S
C594        C701   1.471       .  S
C595        C629   1.469       .  S
C596        C666   1.477       .  S
O597        C607   1.277       .  A
O598        C608   1.274       .  A
O598       Cu605   1.995   1_556  S
O599        C609   1.276       .  A
O600        C610   1.280       .  A
O600       Cu605   2.017   1_556  S
O601        C610   1.276       .  A
O602        C609   1.279       .  A
O602       Cu606   2.010       .  S
O603        C608   1.280       .  A
O604        C607   1.275       .  A
O604       Cu606   1.997       .  S
C607        C781   1.462       .  S
C608        C762   1.470       .  S
C609        C650   1.471       .  S
C610        C626   1.477       .  S
O611        C621   1.278       .  A
O612        C622   1.281       .  A
O612       Cu619   2.020       .  S
O613        C623   1.274       .  A
O614        C624   1.274       .  A
O614       Cu619   1.993       .  S
O615        C624   1.282       .  A
O615       Cu620   2.034       .  S
O616        C623   1.281       .  A
O617        C622   1.273       .  A
O617       Cu620   1.986       .  S
O618        C621   1.276       .  A
Cu619      Cu620   2.377       .  S
C621        C698   1.466       .  S
C622        C730   1.466       .  S
C623        C662   1.470       .  S
C624        C638   1.475       .  S
C625        C626   1.343       .  D
C625        H627   1.086       .  S
C626        H628   1.087       .  S
C629        C630   1.343       .  D
C629        H631   1.082       .  S
C630        H632   1.087       .  S
C633        C634   1.339       .  D
C633        H635   1.085       .  S
C634        H636   1.086       .  S
C637        C638   1.341       .  D
C637        H639   1.087       .  S
C638        H640   1.084       .  S
C641        C642   1.338       .  D
C641        H643   1.087       .  S
C642        H644   1.084       .  S
C645        C646   1.344       .  D
C645        H647   1.086       .  S
C646        H648   1.087       .  S
C649        C650   1.341       .  D
C649        H651   1.086       .  S
C650        H652   1.083       .  S
C653        C654   1.339       .  D
C653        H655   1.086       .  S
C654        H656   1.086       .  S
C657        C658   1.338       .  D
C657        H659   1.086       .  S
C658        H660   1.083       .  S
C661        C662   1.339       .  D
C661        H663   1.087       .  S
C662        H664   1.087       .  S
C665        C666   1.339       .  D
C665        H667   1.085       .  S
C666        H668   1.086       .  S
C669        C670   1.339       .  D
C669        H671   1.085       .  S
C670        H672   1.087       .  S
C673        C674   1.343       .  D
C673        H675   1.084       .  S
C674        H676   1.086       .  S
C677        C678   1.340       .  D
C677        H679   1.085       .  S
C678        H680   1.085       .  S
C681        C682   1.343       .  D
C681        H683   1.085       .  S
C682        H684   1.087       .  S
C685        C686   1.342       .  D
C685        H687   1.084       .  S
C686        H688   1.088       .  S
C689        C690   1.340       .  D
C689        H691   1.085       .  S
C690        H692   1.087       .  S
C693        C694   1.344       .  D
C693        H695   1.085       .  S
C694        H696   1.082       .  S
C697        C698   1.344       .  D
C697        H699   1.087       .  S
C698        H700   1.083       .  S
C701        C702   1.339       .  D
C701        H703   1.085       .  S
C702        H704   1.087       .  S
C705        C706   1.350       .  D
C705        H707   1.086       .  S
C706        H708   1.084       .  S
C709        C710   1.343       .  D
C709        H711   1.088       .  S
C710        H712   1.085       .  S
C713        C714   1.338       .  D
C713        H715   1.087       .  S
C714        H716   1.087       .  S
C717        C718   1.347       .  D
C717        H719   1.082       .  S
C718        H720   1.087       .  S
C721        C722   1.340       .  D
C721        H723   1.087       .  S
C722        H724   1.084       .  S
C725        C726   1.338       .  D
C725        H727   1.086       .  S
C726        H728   1.087       .  S
C729        C730   1.340       .  D
C729        H731   1.087       .  S
C730        H732   1.085       .  S
C733        C734   1.344       .  D
C733        H735   1.087       .  S
C734        H736   1.084       .  S
C737        C738   1.346       .  D
C737        H739   1.087       .  S
C738        H740   1.086       .  S
C741        C742   1.340       .  D
C741        H743   1.086       .  S
C742        H744   1.086       .  S
C745        C746   1.346       .  D
C745        H747   1.083       .  S
C746        H748   1.087       .  S
C749        C750   1.341       .  D
C749        H751   1.085       .  S
C750        H752   1.086       .  S
C753        C754   1.338       .  D
C753        H755   1.086       .  S
C754        H756   1.087       .  S
C757        C758   1.341       .  D
C757        H759   1.083       .  S
C758        H760   1.087       .  S
C761        C762   1.340       .  D
C761        H763   1.087       .  S
C762        H764   1.086       .  S
C765        C766   1.343       .  D
C765        H767   1.086       .  S
C766        H768   1.087       .  S
C769        C770   1.348       .  D
C769        H771   1.084       .  S
C770        H772   1.086       .  S
C773        C774   1.333       .  D
C773        H775   1.088       .  S
C774        H776   1.083       .  S
C777        C778   1.335       .  D
C777        H779   1.087       .  S
C778        H780   1.086       .  S
C781        C782   1.339       .  D
C781        H783   1.086       .  S
C782        H784   1.086       .  S
C785        C786   1.339       .  D
C785        H787   1.088       .  S
C786        H788   1.083       .  S
C789        C790   1.334       .  D
C789        H791   1.087       .  S
C790        H792   1.086       .  S
C793        C794   1.341       .  D
C793        H795   1.086       .  S
C794        H796   1.086       .  S
C797        C798   1.341       .  D
C797        H799   1.086       .  S
C798        H800   1.086       .  S
C801        C802   1.338       .  D
C801        H803   1.083       .  S
C802        H804   1.087       .  S
C805        C806   1.333       .  D
C805        H807   1.086       .  S
C806        H808   1.087       .  S
C809        C810   1.340       .  D
C809        H811   1.086       .  S
C810        H812   1.085       .  S
C813        C814   1.352       .  D
C813        H815   1.086       .  S
C814        H816   1.083       .  S
O817        C827   1.273       .  A
O817      Cu2457   1.991       .  S
O818        C828   1.278       .  A
O818       Cu825   1.999   1_455  S
O819        C829   1.278       .  A
O819      Cu2457   2.016       .  S
O820        C830   1.276       .  A
O820       Cu825   2.005   1_455  S
O821        C830   1.278       .  A
O821      Cu2458   2.005   1_455  S
O822        C829   1.276       .  A
O822       Cu826   2.011       .  S
O823        C828   1.277       .  A
O823      Cu2458   2.009   1_455  S
O824        C827   1.281       .  A
O824       Cu826   2.027       .  S
Cu825      O2449   2.002       .  S
Cu825      O2451   2.016       .  S
Cu825     Cu2458   2.377       .  S
Cu826      O2453   2.013       .  S
Cu826      O2455   2.022       .  S
Cu826     Cu2457   2.376       .  S
C827       C1209   1.469       .  S
C828       C1214   1.472       .  S
C829       C1218   1.468       .  S
C830       C1222   1.466       .  S
C831       C1205   1.497       .  S
C831        C832   1.417       .  A
C831        C836   1.421       .  A
C832       C1197   1.486       .  S
C832        C833   1.413       .  A
C833       C1221   1.486       .  S
C833        C834   1.413       .  A
C834       C1193   1.493       .  S
C834        C835   1.417       .  A
C835       C1201   1.496       .  S
C835        C836   1.424       .  A
C836       C1190   1.490       .  S
C837       C1217   1.496       .  S
C837        C838   1.423       .  A
C837        C842   1.420       .  A
C838       C1178   1.496       .  S
C838        C839   1.422       .  A
C839       C1185   1.491       .  S
C839        C840   1.417       .  A
C840       C1169   1.486       .  S
C840        C841   1.416       .  A
C841       C1181   1.496       .  S
C841        C842   1.412       .  A
C842       C1173   1.492       .  S
O843        C853   1.278       .  A
O844        C854   1.276       .  A
O844       Cu851   1.996       .  S
O845        C855   1.277       .  A
O845       Cu851   2.012       .  S
O846        C856   1.275       .  A
O847        C856   1.277       .  A
O847       Cu852   2.006   1_565  S
O848        C855   1.279       .  A
O849        C854   1.277       .  A
O850        C853   1.278       .  A
O850       Cu852   2.015   1_565  S
C853       C1157   1.476       .  S
C854       C1161   1.461       .  S
C855       C1206   1.477       .  S
C856       C1165   1.459       .  S
C857       C1166   1.480       .  S
C857        C858   1.412       .  A
C857        C862   1.418       .  A
C858       C1137   1.488       .  S
C858        C859   1.414       .  A
C859       C1150   1.492       .  S
C859        C860   1.415       .  A
C860       C1141   1.490       .  S
C860        C861   1.419       .  A
C861       C1154   1.489       .  S
C861        C862   1.419       .  A
C862       C1145   1.503       .  S
O863        C873   1.282       .  A
O863      Cu2503   2.037       .  S
O864        C874   1.279       .  A
O864       Cu871   2.019       .  S
O865        C875   1.274       .  A
O865      Cu2503   1.997       .  S
O866        C876   1.277       .  A
O866       Cu871   2.003       .  S
O867        C876   1.277       .  A
O867      Cu2504   2.012       .  S
O868        C875   1.279       .  A
O868       Cu872   2.022       .  S
O869        C874   1.276       .  A
O869      Cu2504   1.993       .  S
O870        C873   1.274       .  A
O870       Cu872   1.999       .  S
Cu871      O2495   2.015       .  S
Cu871      O2497   2.005       .  S
Cu871     Cu2504   2.374       .  S
Cu872      O2499   2.025   1_455  S
Cu872      O2501   1.992   1_455  S
Cu872     Cu2503   2.372       .  S
C873       C1133   1.477       .  S
C874       C1153   1.474       .  S
C875       C1125   1.465       .  S
C876       C1130   1.469       .  S
C877       C1110   1.497       .  S
C877        C878   1.419       .  A
C877        C882   1.426       .  A
C878       C1134   1.495       .  S
C878        C879   1.421       .  A
C879       C1113   1.502       .  S
C879        C880   1.419       .  A
C880       C1121   1.479       .  S
C880        C881   1.414       .  A
C881       C1105   1.497       .  S
C881        C882   1.416       .  A
C882       C1117   1.493       .  S
O883        C893   1.275       .  A
O884        C894   1.278       .  A
O884       Cu891   2.002       .  S
O885        C895   1.277       .  A
O885       Cu891   2.008       .  S
O886        C896   1.280       .  A
O887        C896   1.275       .  A
O887       Cu892   2.000       .  S
O888        C895   1.274       .  A
O889        C894   1.278       .  A
O890        C893   1.280       .  A
O890       Cu892   2.021       .  S
C893       C1097   1.469       .  S
C894       C1101   1.474       .  S
C895       C1122   1.460       .  S
C896       C1186   1.471       .  S
O897        C907   1.275       .  A
O897      Cu1313   2.005       .  S
O898        C908   1.275       .  A
O898       Cu905   2.007       .  S
O899        C909   1.280       .  A
O899       Cu905   2.020       .  S
O900        C910   1.279       .  A
O900      Cu1313   2.022       .  S
O901        C910   1.275       .  A
O901       Cu906   2.003       .  S
O902        C909   1.276       .  A
O902      Cu1314   2.014   1_554  S
O903        C908   1.279       .  A
O903      Cu1314   2.025   1_554  S
O904        C907   1.281       .  A
O904       Cu906   2.022       .  S
Cu905      O1305   1.992   1_554  S
Cu905      O1308   2.027   1_554  S
Cu905     Cu1314   2.377   1_554  S
Cu906      O1310   1.997       .  S
Cu906      O1311   2.032       .  S
Cu906     Cu1313   2.374       .  S
C907       C1118   1.475       .  S
C908       C1202   1.470       .  S
C909       C1093   1.477       .  S
C910       C1089   1.468       .  S
O911        C921   1.281       .  A
O911      Cu1327   2.030   1_554  S
O912        C922   1.280       .  A
O912       Cu919   2.021       .  S
O913        C923   1.277       .  A
O913       Cu919   2.000       .  S
O914        C924   1.275       .  A
O914      Cu1327   2.005   1_554  S
O915        C924   1.280       .  A
O915       Cu920   2.019       .  S
O916        C923   1.278       .  A
O916      Cu1328   2.015       .  S
O917        C922   1.275       .  A
O917      Cu1328   1.997       .  S
O918        C921   1.273       .  A
O918       Cu920   1.982       .  S
Cu919      O1319   2.034       .  S
Cu919      O1322   1.997       .  S
Cu919     Cu1328   2.376       .  S
Cu920      O1324   2.017   1_554  S
Cu920      O1325   1.983   1_554  S
Cu920     Cu1327   2.377   1_554  S
C921       C1149   1.468       .  S
C922       C1182   1.470       .  S
C923       C1086   1.476       .  S
C924       C1081   1.472       .  S
C925       C1102   1.492       .  S
C925        C926   1.423       .  A
C925        C930   1.415       .  A
C926       C1078   1.492       .  S
C926        C927   1.421       .  A
C927       C1129   1.502       .  S
C927        C928   1.417       .  A
C928       C1073   1.492       .  S
C928        C929   1.418       .  A
C929       C1085   1.497       .  S
C929        C930   1.418       .  A
C930       C1069   1.484       .  S
O931        C941   1.280       .  A
O932        C942   1.281       .  A
O932       Cu939   2.031       .  S
O933        C943   1.277       .  A
O933       Cu939   2.012       .  S
O934        C944   1.278       .  A
O935        C944   1.278       .  A
O935       Cu940   2.011       .  S
O936        C943   1.278       .  A
O937        C942   1.275       .  A
O938        C941   1.275       .  A
O938       Cu940   1.992       .  S
C941       C1077   1.470       .  S
C942       C1065   1.478       .  S
C943       C1177   1.472       .  S
C944       C1146   1.475       .  S
C945       C1162   1.478       .  S
C945        C946   1.422       .  A
C945        C950   1.414       .  A
C946       C1066   1.502       .  S
C946        C947   1.421       .  A
C947       C1210   1.487       .  S
C947        C948   1.412       .  A
C948       C1061   1.482       .  S
C948        C949   1.412       .  A
C949       C1082   1.488       .  S
C949        C950   1.408       .  A
C950       C1057   1.488       .  S
O951        C961   1.274       .  A
O951      Cu2591   1.996       .  S
O952        C962   1.279       .  A
O952       Cu959   2.009       .  S
O953        C963   1.276       .  A
O953       Cu959   2.004       .  S
O954        C964   1.277       .  A
O954      Cu2591   2.009       .  S
O955        C964   1.276       .  A
O955       Cu960   2.005       .  S
O956        C963   1.279       .  A
O956      Cu2592   2.011       .  S
O957        C962   1.276       .  A
O957      Cu2592   2.009       .  S
O958        C961   1.279       .  A
O958       Cu960   2.019       .  S
Cu959      O2583   2.009   1_455  S
Cu959      O2586   2.002   1_455  S
Cu959     Cu2592   2.376       .  S
Cu960      O2588   2.015       .  S
Cu960      O2589   2.017       .  S
Cu960     Cu2591   2.376       .  S
C961       C1062   1.466       .  S
C962       C1053   1.475       .  S
C963       C1194   1.471       .  S
C964       C1142   1.462       .  S
C965       C1158   1.491       .  S
C965        C966   1.418       .  A
C965        C970   1.421       .  A
C966       C1049   1.483       .  S
C966        C967   1.416       .  A
C967       C1126   1.497       .  S
C967        C968   1.416       .  A
C968       C1054   1.490       .  S
C968        C969   1.417       .  A
C969       C1094   1.492       .  S
C969        C970   1.419       .  A
C970       C1045   1.495       .  S
O971        C981   1.279       .  A
O972        C982   1.279       .  A
O972       Cu979   2.016       .  S
O973        C983   1.278       .  A
O973       Cu979   2.018       .  S
O974        C984   1.277       .  A
O975        C984   1.280       .  A
O975       Cu980   2.022   1_565  S
O976        C983   1.278       .  A
O977        C982   1.278       .  A
O978        C981   1.273       .  A
O978       Cu980   1.984   1_565  S
C981       C1050   1.460       .  S
C982       C1041   1.479       .  S
C983       C1198   1.472       .  S
C984       C1114   1.477       .  S
C985       C1213   1.491       .  S
C985        C986   1.418       .  A
C985        C990   1.416       .  A
C986       C1038   1.486       .  S
C986        C987   1.421       .  A
C987       C1090   1.492       .  S
C987        C988   1.418       .  A
C988       C1033   1.496       .  S
C988        C989   1.414       .  A
C989       C1098   1.485       .  S
C989        C990   1.415       .  A
C990       C1042   1.492       .  S
O991       C1001   1.274       .  A
O991      Cu2631   1.997       .  S
O992       C1002   1.274       .  A
O992       Cu999   1.995       .  S
O993       C1003   1.283       .  A
O993       Cu999   2.034       .  S
O994       C1004   1.282       .  A
O994      Cu2631   2.033       .  S
O995       C1004   1.274       .  A
O995      Cu1000   1.994       .  S
O996       C1003   1.272       .  A
O996      Cu2632   1.987       .  S
O997       C1002   1.280       .  A
O997      Cu2632   2.027       .  S
O998       C1001   1.282       .  A
O998      Cu1000   2.028       .  S
Cu999      O2623   1.989   1_455  S
Cu999      O2626   2.043   1_455  S
Cu999     Cu2632   2.373       .  S
Cu1000     O2628   1.984       .  S
Cu1000     O2629   2.024       .  S
Cu1000    Cu2631   2.376       .  S
C1001      C1174   1.475       .  S
C1002      C1109   1.467       .  S
C1003      C1037   1.470       .  S
C1004      C1074   1.475       .  S
O1005      C1015   1.279       .  A
O1005     Cu1421   2.009       .  S
O1006      C1016   1.278       .  A
O1006     Cu1013   2.015       .  S
O1007      C1017   1.276       .  A
O1007     Cu1421   2.004       .  S
O1008      C1018   1.280       .  A
O1008     Cu1013   2.016       .  S
O1009      C1018   1.276       .  A
O1009     Cu1422   2.006       .  S
O1010      C1017   1.277       .  A
O1010     Cu1014   2.001   1_554  S
O1011      C1016   1.275       .  A
O1011     Cu1422   2.002       .  S
O1012      C1015   1.276       .  A
O1012     Cu1014   2.002   1_554  S
Cu1013     O1413   2.004       .  S
Cu1013     O1415   2.017       .  S
Cu1013    Cu1422   2.376       .  S
Cu1014     O1417   2.011       .  S
Cu1014     O1419   2.010       .  S
Cu1014    Cu1421   2.376   1_556  S
C1015      C1189   1.471       .  S
C1016      C1170   1.464       .  S
C1017      C1058   1.465       .  S
C1018      C1034   1.475       .  S
O1019      C1029   1.281       .  A
O1019     Cu1435   2.028       .  S
O1020      C1030   1.275       .  A
O1020     Cu1027   1.991   1_554  S
O1021      C1031   1.273       .  A
O1021     Cu1435   1.989       .  S
O1022      C1032   1.276       .  A
O1022     Cu1027   2.003   1_554  S
O1023      C1032   1.279       .  A
O1023     Cu1028   2.018       .  S
O1024      C1031   1.281       .  A
O1024     Cu1436   2.029       .  S
O1025      C1030   1.278       .  A
O1025     Cu1028   2.012       .  S
O1026      C1029   1.275       .  A
O1026     Cu1436   1.988       .  S
Cu1027     O1427   1.994       .  S
Cu1027     O1429   1.996       .  S
Cu1027    Cu1028   2.379   1_556  S
Cu1028     O1432   2.009   1_554  S
Cu1028     O1434   2.007   1_554  S
C1029      C1106   1.474       .  S
C1030      C1138   1.465       .  S
C1031      C1070   1.466       .  S
C1032      C1046   1.474       .  S
C1033      C1034   1.344       .  D
C1033      H1035   1.086       .  S
C1034      H1036   1.086       .  S
C1037      C1038   1.336       .  D
C1037      H1039   1.087       .  S
C1038      H1040   1.086       .  S
C1041      C1042   1.344       .  D
C1041      H1043   1.085       .  S
C1042      H1044   1.086       .  S
C1045      C1046   1.343       .  D
C1045      H1047   1.084       .  S
C1046      H1048   1.084       .  S
C1049      C1050   1.337       .  D
C1049      H1051   1.087       .  S
C1050      H1052   1.084       .  S
C1053      C1054   1.342       .  D
C1053      H1055   1.087       .  S
C1054      H1056   1.086       .  S
C1057      C1058   1.340       .  D
C1057      H1059   1.087       .  S
C1058      H1060   1.083       .  S
C1061      C1062   1.338       .  D
C1061      H1063   1.086       .  S
C1062      H1064   1.086       .  S
C1065      C1066   1.344       .  D
C1065      H1067   1.084       .  S
C1066      H1068   1.083       .  S
C1069      C1070   1.336       .  D
C1069      H1071   1.087       .  S
C1070      H1072   1.087       .  S
C1073      C1074   1.339       .  D
C1073      H1075   1.087       .  S
C1074      H1076   1.086       .  S
C1077      C1078   1.341       .  D
C1077      H1079   1.085       .  S
C1078      H1080   1.086       .  S
C1081      C1082   1.341       .  D
C1081      H1083   1.085       .  S
C1082      H1084   1.087       .  S
C1085      C1086   1.346       .  D
C1085      H1087   1.083       .  S
C1086      H1088   1.084       .  S
C1089      C1090   1.340       .  D
C1089      H1091   1.086       .  S
C1090      H1092   1.087       .  S
C1093      C1094   1.342       .  D
C1093      H1095   1.086       .  S
C1094      H1096   1.087       .  S
C1097      C1098   1.339       .  D
C1097      H1099   1.086       .  S
C1098      H1100   1.087       .  S
C1101      C1102   1.342       .  D
C1101      H1103   1.085       .  S
C1102      H1104   1.083       .  S
C1105      C1106   1.348       .  D
C1105      H1107   1.086       .  S
C1106      H1108   1.083       .  S
C1109      C1110   1.341       .  D
C1109      H1111   1.084       .  S
C1110      H1112   1.088       .  S
C1113      C1114   1.348       .  D
C1113      H1115   1.083       .  S
C1114      H1116   1.084       .  S
C1117      C1118   1.341       .  D
C1117      H1119   1.086       .  S
C1118      H1120   1.086       .  S
C1121      C1122   1.335       .  D
C1121      H1123   1.087       .  S
C1122      H1124   1.087       .  S
C1125      C1126   1.345       .  D
C1125      H1127   1.084       .  S
C1126      H1128   1.087       .  S
C1129      C1130   1.342       .  D
C1129      H1131   1.088       .  S
C1130      H1132   1.081       .  S
C1133      C1134   1.341       .  D
C1133      H1135   1.086       .  S
C1134      H1136   1.086       .  S
C1137      C1138   1.337       .  D
C1137      H1139   1.085       .  S
C1138      H1140   1.085       .  S
C1141      C1142   1.341       .  D
C1141      H1143   1.087       .  S
C1142      H1144   1.086       .  S
C1145      C1146   1.346       .  D
C1145      H1147   1.085       .  S
C1146      H1148   1.083       .  S
C1149      C1150   1.338       .  D
C1149      H1151   1.085       .  S
C1150      H1152   1.087       .  S
C1153      C1154   1.346       .  D
C1153      H1155   1.086       .  S
C1154      H1156   1.085       .  S
C1157      C1158   1.341       .  D
C1157      H1159   1.086       .  S
C1158      H1160   1.086       .  S
C1161      C1162   1.335       .  D
C1161      H1163   1.086       .  S
C1162      H1164   1.087       .  S
C1165      C1166   1.335       .  D
C1165      H1167   1.086       .  S
C1166      H1168   1.087       .  S
C1169      C1170   1.338       .  D
C1169      H1171   1.087       .  S
C1170      H1172   1.086       .  S
C1173      C1174   1.341       .  D
C1173      H1175   1.086       .  S
C1174      H1176   1.087       .  S
C1177      C1178   1.344       .  D
C1177      H1179   1.083       .  S
C1178      H1180   1.087       .  S
C1181      C1182   1.342       .  D
C1181      H1183   1.086       .  S
C1182      H1184   1.085       .  S
C1185      C1186   1.339       .  D
C1185      H1187   1.082       .  S
C1186      H1188   1.086       .  S
C1189      C1190   1.341       .  D
C1189      H1191   1.086       .  S
C1190      H1192   1.086       .  S
C1193      C1194   1.343       .  D
C1193      H1195   1.086       .  S
C1194      H1196   1.086       .  S
C1197      C1198   1.340       .  D
C1197      H1199   1.086       .  S
C1198      H1200   1.085       .  S
C1201      C1202   1.342       .  D
C1201      H1203   1.087       .  S
C1202      H1204   1.086       .  S
C1205      C1206   1.345       .  D
C1205      H1207   1.086       .  S
C1206      H1208   1.084       .  S
C1209      C1210   1.337       .  D
C1209      H1211   1.086       .  S
C1210      H1212   1.087       .  S
C1213      C1214   1.343       .  D
C1213      H1215   1.086       .  S
C1214      H1216   1.084       .  S
C1217      C1218   1.342       .  D
C1217      H1219   1.087       .  S
C1218      H1220   1.085       .  S
C1221      C1222   1.340       .  D
C1221      H1223   1.087       .  S
C1222      H1224   1.084       .  S
O1225      C1235   1.272       .  A
O1225     Cu2865   1.985       .  S
O1226      C1236   1.274       .  A
O1226     Cu1233   1.996   1_455  S
O1227      C1237   1.283       .  A
O1227     Cu2865   2.033       .  S
O1228      C1238   1.281       .  A
O1228     Cu1233   2.031   1_455  S
O1229      C1238   1.275       .  A
O1229     Cu2866   1.996       .  S
O1230      C1237   1.273       .  A
O1230     Cu1234   1.993       .  S
O1231      C1236   1.281       .  A
O1231     Cu2866   2.020       .  S
O1232      C1235   1.283       .  A
O1232     Cu1234   2.039       .  S
Cu1233     O2857   2.008       .  S
Cu1233     O2859   2.013       .  S
Cu1233    Cu2866   2.375   1_655  S
Cu1234     O2861   1.998       .  S
Cu1234     O2863   2.033       .  S
Cu1234    Cu2865   2.376       .  S
C1235      C1617   1.471       .  S
C1236      C1622   1.471       .  S
C1237      C1626   1.475       .  S
C1238      C1630   1.478       .  S
C1239      C1613   1.495       .  S
C1239      C1240   1.417       .  A
C1239      C1244   1.413       .  A
C1240      C1605   1.486       .  S
C1240      C1241   1.419       .  A
C1241      C1629   1.490       .  S
C1241      C1242   1.427       .  A
C1242      C1601   1.505       .  S
C1242      C1243   1.421       .  A
C1243      C1609   1.490       .  S
C1243      C1244   1.416       .  A
C1244      C1598   1.492       .  S
C1245      C1625   1.490       .  S
C1245      C1246   1.415       .  A
C1245      C1250   1.419       .  A
C1246      C1586   1.495       .  S
C1246      C1247   1.417       .  A
C1247      C1593   1.482       .  S
C1247      C1248   1.413       .  A
C1248      C1577   1.497       .  S
C1248      C1249   1.422       .  A
C1249      C1589   1.487       .  S
C1249      C1250   1.420       .  A
C1250      C1581   1.501       .  S
O1251      C1261   1.279       .  A
O1252      C1262   1.280       .  A
O1252     Cu1259   2.006       .  S
O1253      C1263   1.275       .  A
O1253     Cu1259   1.999       .  S
O1254      C1264   1.274       .  A
O1255      C1264   1.277       .  A
O1255     Cu1260   2.008       .  S
O1256      C1263   1.281       .  A
O1257      C1262   1.275       .  A
O1258      C1261   1.277       .  A
O1258     Cu1260   1.999       .  S
C1261      C1565   1.473       .  S
C1262      C1569   1.473       .  S
C1263      C1614   1.474       .  S
C1264      C1573   1.456       .  S
C1265      C1574   1.488       .  S
C1265      C1266   1.417       .  A
C1265      C1270   1.420       .  A
C1266      C1545   1.486       .  S
C1266      C1267   1.414       .  A
C1267      C1558   1.495       .  S
C1267      C1268   1.414       .  A
C1268      C1549   1.487       .  S
C1268      C1269   1.420       .  A
C1269      C1562   1.490       .  S
C1269      C1270   1.420       .  A
C1270      C1553   1.501       .  S
O1271      C1281   1.282       .  A
O1271     Cu2911   2.028       .  S
O1272      C1282   1.281       .  A
O1272     Cu1279   2.027       .  S
O1273      C1283   1.272       .  A
O1273     Cu2911   1.983       .  S
O1274      C1284   1.272       .  A
O1274     Cu1279   1.985       .  S
O1275      C1284   1.282       .  A
O1275     Cu2912   2.027       .  S
O1276      C1283   1.280       .  A
O1276     Cu1280   2.029   1_455  S
O1277      C1282   1.275       .  A
O1277     Cu2912   2.004       .  S
O1278      C1281   1.275       .  A
O1278     Cu1280   2.005   1_455  S
Cu1279     O2903   2.044       .  S
Cu1279     O2905   1.992       .  S
Cu1279    Cu2912   2.377       .  S
Cu1280     O2907   2.014       .  S
Cu1280     O2909   2.004       .  S
Cu1280    Cu2911   2.377   1_655  S
C1281      C1541   1.476       .  S
C1282      C1561   1.474       .  S
C1283      C1533   1.462       .  S
C1284      C1538   1.469       .  S
C1285      C1518   1.493       .  S
C1285      C1286   1.421       .  A
C1285      C1290   1.415       .  A
C1286      C1542   1.487       .  S
C1286      C1287   1.419       .  A
C1287      C1521   1.500       .  S
C1287      C1288   1.420       .  A
C1288      C1529   1.480       .  S
C1288      C1289   1.415       .  A
C1289      C1513   1.488       .  S
C1289      C1290   1.407       .  A
C1290      C1525   1.489       .  S
O1291      C1301   1.276       .  A
O1292      C1302   1.277       .  A
O1292     Cu1299   1.997       .  S
O1293      C1303   1.278       .  A
O1293     Cu1299   2.008       .  S
O1294      C1304   1.277       .  A
O1295      C1304   1.276       .  A
O1295     Cu1300   2.004       .  S
O1296      C1303   1.275       .  A
O1297      C1302   1.277       .  A
O1298      C1301   1.279       .  A
O1298     Cu1300   2.019       .  S
C1301      C1505   1.470       .  S
C1302      C1509   1.469       .  S
C1303      C1530   1.464       .  S
C1304      C1594   1.461       .  S
O1305      C1315   1.273       .  A
O1306      C1316   1.274       .  A
O1306     Cu1313   1.998       .  S
O1307      C1317   1.279       .  A
O1307     Cu1313   2.018       .  S
O1308      C1318   1.279       .  A
O1309      C1318   1.275       .  A
O1309     Cu1314   2.003       .  S
O1310      C1317   1.274       .  A
O1311      C1316   1.282       .  A
O1312      C1315   1.282       .  A
O1312     Cu1314   2.031       .  S
C1315      C1526   1.471       .  S
C1316      C1610   1.476       .  S
C1317      C1501   1.464       .  S
C1318      C1497   1.470       .  S
O1319      C1329   1.281       .  A
O1320      C1330   1.279       .  A
O1320     Cu1327   2.021       .  S
O1321      C1331   1.278       .  A
O1321     Cu1327   2.005       .  S
O1322      C1332   1.275       .  A
O1323      C1332   1.279       .  A
O1323     Cu1328   2.014       .  S
O1324      C1331   1.279       .  A
O1325      C1330   1.273       .  A
O1326      C1329   1.276       .  A
O1326     Cu1328   2.003       .  S
C1329      C1557   1.478       .  S
C1330      C1590   1.462       .  S
C1331      C1494   1.478       .  S
C1332      C1489   1.468       .  S
C1333      C1510   1.487       .  S
C1333      C1334   1.415       .  A
C1333      C1338   1.415       .  A
C1334      C1486   1.494       .  S
C1334      C1335   1.409       .  A
C1335      C1537   1.485       .  S
C1335      C1336   1.417       .  A
C1336      C1481   1.490       .  S
C1336      C1337   1.421       .  A
C1337      C1493   1.500       .  S
C1337      C1338   1.420       .  A
C1338      C1477   1.479       .  S
O1339      C1349   1.280       .  A
O1340      C1350   1.280       .  A
O1340     Cu1347   2.024       .  S
O1341      C1351   1.278       .  A
O1341     Cu1347   2.005       .  S
O1342      C1352   1.278       .  A
O1343      C1352   1.279       .  A
O1343     Cu1348   2.019   1_565  S
O1344      C1351   1.276       .  A
O1345      C1350   1.276       .  A
O1346      C1349   1.274       .  A
O1346     Cu1348   1.991   1_565  S
C1349      C1485   1.470       .  S
C1350      C1473   1.471       .  S
C1351      C1585   1.468       .  S
C1352      C1554   1.480       .  S
C1353      C1570   1.488       .  S
C1353      C1354   1.421       .  A
C1353      C1358   1.417       .  A
C1354      C1474   1.493       .  S
C1354      C1355   1.417       .  A
C1355      C1618   1.493       .  S
C1355      C1356   1.411       .  A
C1356      C1469   1.483       .  S
C1356      C1357   1.417       .  A
C1357      C1490   1.487       .  S
C1357      C1358   1.417       .  A
C1358      C1465   1.496       .  S
O1359      C1369   1.277       .  A
O1359     Cu2999   2.008       .  S
O1360      C1370   1.279       .  A
O1360     Cu1367   2.011       .  S
O1361      C1371   1.276       .  A
O1361     Cu1367   2.003       .  S
O1362      C1372   1.277       .  A
O1362     Cu2999   1.999       .  S
O1363      C1372   1.277       .  A
O1363     Cu1368   2.011       .  S
O1364      C1371   1.279       .  A
O1364     Cu3000   2.025   1_455  S
O1365      C1370   1.277       .  A
O1365     Cu3000   2.014   1_455  S
O1366      C1369   1.277       .  A
O1366     Cu1368   2.004       .  S
Cu1367     O2991   2.024   1_455  S
Cu1367     O2994   1.989   1_455  S
Cu1367    Cu3000   2.375   1_455  S
Cu1368     O2996   2.020       .  S
Cu1368     O2997   2.006       .  S
Cu1368    Cu2999   2.377       .  S
C1369      C1470   1.465       .  S
C1370      C1461   1.475       .  S
C1371      C1602   1.471       .  S
C1372      C1550   1.471       .  S
C1373      C1566   1.487       .  S
C1373      C1374   1.416       .  A
C1373      C1378   1.419       .  A
C1374      C1457   1.484       .  S
C1374      C1375   1.414       .  A
C1375      C1534   1.493       .  S
C1375      C1376   1.418       .  A
C1376      C1462   1.489       .  S
C1376      C1377   1.423       .  A
C1377      C1502   1.499       .  S
C1377      C1378   1.417       .  A
C1378      C1453   1.499       .  S
O1379      C1389   1.279       .  A
O1380      C1390   1.282       .  A
O1380     Cu1387   2.034       .  S
O1381      C1391   1.275       .  A
O1381     Cu1387   2.002       .  S
O1382      C1392   1.278       .  A
O1383      C1392   1.278       .  A
O1383     Cu1388   2.011   1_565  S
O1384      C1391   1.280       .  A
O1385      C1390   1.275       .  A
O1386      C1389   1.274       .  A
O1386     Cu1388   1.988   1_565  S
C1389      C1458   1.460       .  S
C1390      C1449   1.479       .  S
C1391      C1606   1.471       .  S
C1392      C1522   1.475       .  S
C1393      C1621   1.485       .  S
C1393      C1394   1.423       .  A
C1393      C1398   1.417       .  A
C1394      C1446   1.499       .  S
C1394      C1395   1.424       .  A
C1395      C1498   1.499       .  S
C1395      C1396   1.420       .  A
C1396      C1441   1.495       .  S
C1396      C1397   1.413       .  A
C1397      C1506   1.487       .  S
C1397      C1398   1.415       .  A
C1398      C1450   1.494       .  S
O1399      C1409   1.275       .  A
O1399     Cu3039   2.005       .  S
O1400      C1410   1.275       .  A
O1400     Cu1407   1.997   1_455  S
O1401      C1411   1.278       .  A
O1401     Cu1407   2.014   1_455  S
O1402      C1412   1.281       .  A
O1402     Cu3039   2.028       .  S
O1403      C1412   1.275       .  A
O1403     Cu1408   2.006       .  S
O1404      C1411   1.278       .  A
O1404     Cu3040   2.009       .  S
O1405      C1410   1.280       .  A
O1405     Cu3040   2.018       .  S
O1406      C1409   1.281       .  A
O1406     Cu1408   2.034       .  S
Cu1407     O3031   2.001       .  S
Cu1407     O3034   2.022       .  S
Cu1407    Cu3040   2.376   1_655  S
Cu1408     O3036   1.997       .  S
Cu1408     O3037   2.027       .  S
Cu1408    Cu3039   2.375       .  S
C1409      C1582   1.472       .  S
C1410      C1517   1.471       .  S
C1411      C1445   1.475       .  S
C1412      C1482   1.478       .  S
O1413      C1423   1.278       .  A
O1414      C1424   1.277       .  A
O1414     Cu1421   2.008   1_556  S
O1415      C1425   1.278       .  A
O1416      C1426   1.279       .  A
O1416     Cu1421   2.015   1_556  S
O1417      C1426   1.277       .  A
O1418      C1425   1.276       .  A
O1418     Cu1422   2.008       .  S
O1419      C1424   1.279       .  A
O1420      C1423   1.277       .  A
O1420     Cu1422   2.009       .  S
C1423      C1597   1.470       .  S
C1424      C1578   1.474       .  S
C1425      C1466   1.467       .  S
C1426      C1442   1.477       .  S
O1427      C1437   1.275       .  A
O1428      C1438   1.281       .  A
O1428     Cu1435   2.024       .  S
O1429      C1439   1.275       .  A
O1430      C1440   1.275       .  A
O1430     Cu1435   1.998       .  S
O1431      C1440   1.282       .  A
O1431     Cu1436   2.032       .  S
O1432      C1439   1.277       .  A
O1433      C1438   1.273       .  A
O1433     Cu1436   1.990       .  S
O1434      C1437   1.278       .  A
Cu1435    Cu1436   2.377       .  S
C1437      C1514   1.464       .  S
C1438      C1546   1.467       .  S
C1439      C1478   1.461       .  S
C1440      C1454   1.476       .  S
C1441      C1442   1.344       .  D
C1441      H1443   1.087       .  S
C1442      H1444   1.087       .  S
C1445      C1446   1.345       .  D
C1445      H1447   1.081       .  S
C1446      H1448   1.087       .  S
C1449      C1450   1.341       .  D
C1449      H1451   1.085       .  S
C1450      H1452   1.085       .  S
C1453      C1454   1.342       .  D
C1453      H1455   1.087       .  S
C1454      H1456   1.083       .  S
C1457      C1458   1.337       .  D
C1457      H1459   1.087       .  S
C1458      H1460   1.085       .  S
C1461      C1462   1.345       .  D
C1461      H1463   1.086       .  S
C1462      H1464   1.087       .  S
C1465      C1466   1.344       .  D
C1465      H1467   1.087       .  S
C1466      H1468   1.085       .  S
C1469      C1470   1.339       .  D
C1469      H1471   1.087       .  S
C1470      H1472   1.086       .  S
C1473      C1474   1.339       .  D
C1473      H1475   1.086       .  S
C1474      H1476   1.085       .  S
C1477      C1478   1.335       .  D
C1477      H1479   1.087       .  S
C1478      H1480   1.087       .  S
C1481      C1482   1.340       .  D
C1481      H1483   1.086       .  S
C1482      H1484   1.086       .  S
C1485      C1486   1.338       .  D
C1485      H1487   1.085       .  S
C1486      H1488   1.086       .  S
C1489      C1490   1.339       .  D
C1489      H1491   1.083       .  S
C1490      H1492   1.087       .  S
C1493      C1494   1.347       .  D
C1493      H1495   1.083       .  S
C1494      H1496   1.083       .  S
C1497      C1498   1.343       .  D
C1497      H1499   1.085       .  S
C1498      H1500   1.087       .  S
C1501      C1502   1.342       .  D
C1501      H1503   1.083       .  S
C1502      H1504   1.088       .  S
C1505      C1506   1.341       .  D
C1505      H1507   1.086       .  S
C1506      H1508   1.087       .  S
C1509      C1510   1.339       .  D
C1509      H1511   1.084       .  S
C1510      H1512   1.084       .  S
C1513      C1514   1.339       .  D
C1513      H1515   1.087       .  S
C1514      H1516   1.084       .  S
C1517      C1518   1.340       .  D
C1517      H1519   1.084       .  S
C1518      H1520   1.085       .  S
C1521      C1522   1.347       .  D
C1521      H1523   1.085       .  S
C1522      H1524   1.084       .  S
C1525      C1526   1.339       .  D
C1525      H1527   1.087       .  S
C1526      H1528   1.087       .  S
C1529      C1530   1.337       .  D
C1529      H1531   1.087       .  S
C1530      H1532   1.086       .  S
C1533      C1534   1.343       .  D
C1533      H1535   1.085       .  S
C1534      H1536   1.087       .  S
C1537      C1538   1.337       .  D
C1537      H1539   1.087       .  S
C1538      H1540   1.086       .  S
C1541      C1542   1.339       .  D
C1541      H1543   1.086       .  S
C1542      H1544   1.086       .  S
C1545      C1546   1.340       .  D
C1545      H1547   1.086       .  S
C1546      H1548   1.085       .  S
C1549      C1550   1.342       .  D
C1549      H1551   1.087       .  S
C1550      H1552   1.084       .  S
C1553      C1554   1.348       .  D
C1553      H1555   1.084       .  S
C1554      H1556   1.086       .  S
C1557      C1558   1.342       .  D
C1557      H1559   1.085       .  S
C1558      H1560   1.086       .  S
C1561      C1562   1.339       .  D
C1561      H1563   1.086       .  S
C1562      H1564   1.085       .  S
C1565      C1566   1.341       .  D
C1565      H1567   1.084       .  S
C1566      H1568   1.086       .  S
C1569      C1570   1.339       .  D
C1569      H1571   1.086       .  S
C1570      H1572   1.083       .  S
C1573      C1574   1.339       .  D
C1573      H1575   1.083       .  S
C1574      H1576   1.087       .  S
C1577      C1578   1.343       .  D
C1577      H1579   1.082       .  S
C1578      H1580   1.085       .  S
C1581      C1582   1.347       .  D
C1581      H1583   1.087       .  S
C1582      H1584   1.085       .  S
C1585      C1586   1.342       .  D
C1585      H1587   1.085       .  S
C1586      H1588   1.086       .  S
C1589      C1590   1.336       .  D
C1589      H1591   1.087       .  S
C1590      H1592   1.085       .  S
C1593      C1594   1.336       .  D
C1593      H1595   1.087       .  S
C1594      H1596   1.086       .  S
C1597      C1598   1.343       .  D
C1597      H1599   1.085       .  S
C1598      H1600   1.086       .  S
C1601      C1602   1.346       .  D
C1601      H1603   1.087       .  S
C1602      H1604   1.082       .  S
C1605      C1606   1.337       .  D
C1605      H1607   1.087       .  S
C1606      H1608   1.086       .  S
C1609      C1610   1.339       .  D
C1609      H1611   1.086       .  S
C1610      H1612   1.087       .  S
C1613      C1614   1.341       .  D
C1613      H1615   1.086       .  S
C1614      H1616   1.085       .  S
C1617      C1618   1.338       .  D
C1617      H1619   1.085       .  S
C1618      H1620   1.087       .  S
C1621      C1622   1.337       .  D
C1621      H1623   1.085       .  S
C1622      H1624   1.086       .  S
C1625      C1626   1.340       .  D
C1625      H1627   1.086       .  S
C1626      H1628   1.087       .  S
C1629      C1630   1.349       .  D
C1629      H1631   1.086       .  S
C1630      H1632   1.085       .  S
O1633      C1643   1.274       .  A
O1634      C1644   1.272       .  A
O1634     Cu1641   1.981       .  S
O1635      C1645   1.279       .  A
O1636      C1646   1.280       .  A
O1636     Cu1641   2.028       .  S
O1637      C1646   1.275       .  A
O1638      C1645   1.276       .  A
O1638     Cu1642   2.010   1_655  S
O1639      C1644   1.282       .  A
O1640      C1643   1.281       .  A
O1640     Cu1642   2.029   1_655  S
C1643      C2025   1.470       .  S
C1644      C2030   1.469       .  S
C1645      C2034   1.471       .  S
C1646      C2038   1.475       .  S
C1647      C2021   1.494       .  S
C1647      C1648   1.417       .  A
C1647      C1652   1.417       .  A
C1648      C2013   1.485       .  S
C1648      C1649   1.418       .  A
C1649      C2037   1.490       .  S
C1649      C1650   1.417       .  A
C1650      C2009   1.491       .  S
C1650      C1651   1.412       .  A
C1651      C2017   1.494       .  S
C1651      C1652   1.420       .  A
C1652      C2006   1.487       .  S
C1653      C2033   1.502       .  S
C1653      C1654   1.429       .  A
C1653      C1658   1.424       .  A
C1654      C1994   1.500       .  S
C1654      C1655   1.424       .  A
C1655      C2001   1.483       .  S
C1655      C1656   1.409       .  A
C1656      C1985   1.491       .  S
C1656      C1657   1.406       .  A
C1657      C1997   1.490       .  S
C1657      C1658   1.415       .  A
C1658      C1989   1.490       .  S
O1659      C1669   1.279       .  A
O1659     Cu2483   2.023       .  S
O1660      C1670   1.278       .  A
O1660     Cu1667   2.012   1_545  S
O1661      C1671   1.276       .  A
O1661     Cu1667   2.008   1_545  S
O1662      C1672   1.277       .  A
O1662     Cu2483   2.005       .  S
O1663      C1672   1.276       .  A
O1663     Cu1668   2.005       .  S
O1664      C1671   1.280       .  A
O1664     Cu2484   2.015   1_545  S
O1665      C1670   1.277       .  A
O1665     Cu2484   2.017   1_545  S
O1666      C1669   1.278       .  A
O1666     Cu1668   2.005       .  S
Cu1667     O2475   2.019       .  S
Cu1667     O2478   2.006       .  S
Cu1667    Cu2484   2.376       .  S
Cu1668     O2480   2.024       .  S
Cu1668     O2481   2.018       .  S
Cu1668    Cu2483   2.375       .  S
C1669      C1973   1.480       .  S
C1670      C1977   1.472       .  S
C1671      C2022   1.475       .  S
C1672      C1981   1.461       .  S
C1673      C1982   1.489       .  S
C1673      C1674   1.417       .  A
C1673      C1678   1.417       .  A
C1674      C1953   1.485       .  S
C1674      C1675   1.419       .  A
C1675      C1966   1.493       .  S
C1675      C1676   1.419       .  A
C1676      C1957   1.495       .  S
C1676      C1677   1.417       .  A
C1677      C1970   1.488       .  S
C1677      C1678   1.418       .  A
C1678      C1961   1.504       .  S
O1679      C1689   1.280       .  A
O1680      C1690   1.284       .  A
O1680     Cu1687   2.046   1_655  S
O1681      C1691   1.276       .  A
O1682      C1692   1.274       .  A
O1682     Cu1687   1.989   1_655  S
O1683      C1692   1.280       .  A
O1684      C1691   1.279       .  A
O1684     Cu1688   2.017       .  S
O1685      C1690   1.270       .  A
O1686      C1689   1.277       .  A
O1686     Cu1688   2.013       .  S
C1689      C1949   1.477       .  S
C1690      C1969   1.470       .  S
C1691      C1941   1.475       .  S
C1692      C1946   1.469       .  S
C1693      C1926   1.501       .  S
C1693      C1694   1.419       .  A
C1693      C1698   1.427       .  A
C1694      C1950   1.497       .  S
C1694      C1695   1.420       .  A
C1695      C1929   1.494       .  S
C1695      C1696   1.417       .  A
C1696      C1937   1.486       .  S
C1696      C1697   1.417       .  A
C1697      C1921   1.498       .  S
C1697      C1698   1.417       .  A
C1698      C1933   1.491       .  S
O1699      C1709   1.276       .  A
O1699     Cu2523   2.007   1_545  S
O1700      C1710   1.276       .  A
O1700     Cu1707   1.995       .  S
O1701      C1711   1.279       .  A
O1701     Cu1707   2.020       .  S
O1702      C1712   1.277       .  A
O1702     Cu2523   2.009   1_545  S
O1703      C1712   1.275       .  A
O1703     Cu1708   1.995       .  S
O1704      C1711   1.275       .  A
O1704     Cu2524   2.000       .  S
O1705      C1710   1.278       .  A
O1705     Cu2524   2.012       .  S
O1706      C1709   1.279       .  A
O1706     Cu1708   2.015       .  S
Cu1707     O2515   2.000       .  S
Cu1707     O2518   2.009       .  S
Cu1707    Cu2524   2.380       .  S
Cu1708     O2520   1.991   1_545  S
Cu1708     O2521   2.021   1_545  S
Cu1708    Cu2523   2.379   1_545  S
C1709      C1913   1.471       .  S
C1710      C1917   1.468       .  S
C1711      C1938   1.467       .  S
C1712      C2002   1.459       .  S
O1713      C1723   1.275       .  A
O1713     Cu2129   2.007       .  S
O1714      C1724   1.275       .  A
O1714     Cu1721   1.999       .  S
O1715      C1725   1.281       .  A
O1715     Cu1721   2.025       .  S
O1716      C1726   1.282       .  A
O1716     Cu2129   2.036       .  S
O1717      C1726   1.274       .  A
O1717     Cu1722   1.999       .  S
O1718      C1725   1.276       .  A
O1718     Cu2130   2.014   1_554  S
O1719      C1724   1.278       .  A
O1719     Cu2130   2.015   1_554  S
O1720      C1723   1.280       .  A
O1720     Cu1722   2.017       .  S
Cu1721     O2121   1.990   1_554  S
Cu1721     O2124   2.029   1_554  S
Cu1721    Cu2130   2.378   1_554  S
Cu1722     O2126   2.004       .  S
Cu1722     O2127   2.038       .  S
Cu1722    Cu2129   2.376       .  S
C1723      C1934   1.475       .  S
C1724      C2018   1.465       .  S
C1725      C1909   1.482       .  S
C1726      C1905   1.475       .  S
O1727      C1737   1.281       .  A
O1727     Cu2143   2.036   1_554  S
O1728      C1738   1.274       .  A
O1728     Cu1735   1.995       .  S
O1729      C1739   1.278       .  A
O1729     Cu1735   1.999       .  S
O1730      C1740   1.276       .  A
O1730     Cu2143   2.012   1_554  S
O1731      C1740   1.280       .  A
O1731     Cu1736   2.019       .  S
O1732      C1739   1.277       .  A
O1732     Cu2144   2.011       .  S
O1733      C1738   1.277       .  A
O1733     Cu2144   2.004       .  S
O1734      C1737   1.275       .  A
O1734     Cu1736   1.993       .  S
Cu1735     O2135   2.007       .  S
Cu1735     O2138   2.013       .  S
Cu1735    Cu2144   2.376       .  S
Cu1736     O2140   2.012   1_554  S
Cu1736     O2141   1.988   1_554  S
Cu1736    Cu2143   2.375   1_554  S
C1737      C1965   1.475       .  S
C1738      C1998   1.458       .  S
C1739      C1902   1.473       .  S
C1740      C1897   1.479       .  S
C1741      C1918   1.490       .  S
C1741      C1742   1.420       .  A
C1741      C1746   1.411       .  A
C1742      C1894   1.488       .  S
C1742      C1743   1.424       .  A
C1743      C1945   1.508       .  S
C1743      C1744   1.422       .  A
C1744      C1889   1.500       .  S
C1744      C1745   1.423       .  A
C1745      C1901   1.493       .  S
C1745      C1746   1.417       .  A
C1746      C1885   1.490       .  S
O1747      C1757   1.279       .  A
O1747     Cu2571   2.022       .  S
O1748      C1758   1.281       .  A
O1748     Cu1755   2.030       .  S
O1749      C1759   1.277       .  A
O1749     Cu1755   2.010       .  S
O1750      C1760   1.279       .  A
O1750     Cu2571   2.020       .  S
O1751      C1760   1.279       .  A
O1751     Cu1756   2.017       .  S
O1752      C1759   1.278       .  A
O1752     Cu2572   2.009   1_545  S
O1753      C1758   1.273       .  A
O1753     Cu2572   1.987   1_545  S
O1754      C1757   1.274       .  A
O1754     Cu1756   1.992       .  S
Cu1755     O2563   2.026   1_545  S
Cu1755     O2566   2.014   1_545  S
Cu1755    Cu2572   2.376   1_545  S
Cu1756     O2568   2.014       .  S
Cu1756     O2569   1.992       .  S
Cu1756    Cu2571   2.375       .  S
C1757      C1893   1.467       .  S
C1758      C1881   1.471       .  S
C1759      C1993   1.471       .  S
C1760      C1962   1.481       .  S
C1761      C1978   1.488       .  S
C1761      C1762   1.419       .  A
C1761      C1766   1.414       .  A
C1762      C1882   1.494       .  S
C1762      C1763   1.421       .  A
C1763      C2026   1.492       .  S
C1763      C1764   1.420       .  A
C1764      C1877   1.494       .  S
C1764      C1765   1.418       .  A
C1765      C1898   1.494       .  S
C1765      C1766   1.414       .  A
C1766      C1873   1.490       .  S
O1767      C1777   1.273       .  A
O1768      C1778   1.275       .  A
O1768     Cu1775   2.001       .  S
O1769      C1779   1.282       .  A
O1769     Cu1775   2.026       .  S
O1770      C1780   1.277       .  A
O1771      C1780   1.275       .  A
O1771     Cu1776   1.991   1_655  S
O1772      C1779   1.275       .  A
O1773      C1778   1.279       .  A
O1774      C1777   1.281       .  A
O1774     Cu1776   2.032   1_655  S
C1777      C1878   1.465       .  S
C1778      C1869   1.466       .  S
C1779      C2010   1.476       .  S
C1780      C1958   1.463       .  S
C1781      C1974   1.500       .  S
C1781      C1782   1.415       .  A
C1781      C1786   1.424       .  A
C1782      C1865   1.485       .  S
C1782      C1783   1.415       .  A
C1783      C1942   1.494       .  S
C1783      C1784   1.414       .  A
C1784      C1870   1.482       .  S
C1784      C1785   1.416       .  A
C1785      C1910   1.496       .  S
C1785      C1786   1.419       .  A
C1786      C1861   1.487       .  S
O1787      C1797   1.274       .  A
O1787     Cu2611   1.992       .  S
O1788      C1798   1.280       .  A
O1788     Cu1795   2.022   1_545  S
O1789      C1799   1.278       .  A
O1789     Cu1795   2.017   1_545  S
O1790      C1800   1.279       .  A
O1790     Cu2611   2.005       .  S
O1791      C1800   1.277       .  A
O1791     Cu1796   2.011       .  S
O1792      C1799   1.277       .  A
O1792     Cu2612   2.008   1_545  S
O1793      C1798   1.277       .  A
O1793     Cu2612   2.014   1_545  S
O1794      C1797   1.277       .  A
O1794     Cu1796   2.006       .  S
Cu1795     O2603   2.004       .  S
Cu1795     O2606   2.006       .  S
Cu1795    Cu2612   2.376       .  S
Cu1796     O2608   2.005       .  S
Cu1796     O2609   2.014       .  S
Cu1796    Cu2611   2.376       .  S
C1797      C1866   1.456       .  S
C1798      C1857   1.479       .  S
C1799      C2014   1.469       .  S
C1800      C1930   1.476       .  S
C1801      C2029   1.489       .  S
C1801      C1802   1.418       .  A
C1801      C1806   1.420       .  A
C1802      C1854   1.489       .  S
C1802      C1803   1.413       .  A
C1803      C1906   1.492       .  S
C1803      C1804   1.414       .  A
C1804      C1849   1.489       .  S
C1804      C1805   1.414       .  A
C1805      C1914   1.488       .  S
C1805      C1806   1.417       .  A
C1806      C1858   1.491       .  S
O1807      C1817   1.272       .  A
O1808      C1818   1.277       .  A
O1808     Cu1815   2.011       .  S
O1809      C1819   1.278       .  A
O1809     Cu1815   2.019       .  S
O1810      C1820   1.284       .  A
O1811      C1820   1.274       .  A
O1811     Cu1816   1.998   1_655  S
O1812      C1819   1.273       .  A
O1813      C1818   1.278       .  A
O1814      C1817   1.284       .  A
O1814     Cu1816   2.043   1_655  S
C1817      C1990   1.477       .  S
C1818      C1925   1.472       .  S
C1819      C1853   1.458       .  S
C1820      C1890   1.481       .  S
O1821      C1831   1.278       .  A
O1821     Cu2237   2.000       .  S
O1822      C1832   1.276       .  A
O1822     Cu1829   2.002       .  S
O1823      C1833   1.276       .  A
O1823     Cu2237   2.005       .  S
O1824      C1834   1.279       .  A
O1824     Cu1829   2.014       .  S
O1825      C1834   1.276       .  A
O1825     Cu2238   2.005       .  S
O1826      C1833   1.279       .  A
O1826     Cu1830   2.012   1_554  S
O1827      C1832   1.279       .  A
O1827     Cu2238   2.005       .  S
O1828      C1831   1.276       .  A
O1828     Cu1830   2.007   1_554  S
Cu1829     O2229   2.000       .  S
Cu1829     O2231   2.012       .  S
Cu1829    Cu2238   2.377       .  S
Cu1830     O2233   2.022       .  S
Cu1830     O2235   2.014       .  S
Cu1830    Cu2237   2.376   1_556  S
C1831      C2005   1.471       .  S
C1832      C1986   1.470       .  S
C1833      C1874   1.469       .  S
C1834      C1850   1.473       .  S
O1835      C1845   1.276       .  A
O1835     Cu2251   2.002       .  S
O1836      C1846   1.278       .  A
O1836     Cu1843   2.009       .  S
O1837      C1847   1.277       .  A
O1837     Cu2251   2.007       .  S
O1838      C1848   1.276       .  A
O1838     Cu1843   1.999       .  S
O1839      C1848   1.278       .  A
O1839     Cu1844   2.013   1_554  S
O1840      C1847   1.278       .  A
O1840     Cu2252   2.015       .  S
O1841      C1846   1.276       .  A
O1841     Cu1844   2.004   1_554  S
O1842      C1845   1.279       .  A
O1842     Cu2252   2.021       .  S
Cu1843     O2243   2.005   1_554  S
Cu1843     O2245   1.995   1_554  S
Cu1843    Cu1844   2.379   1_554  S
Cu1844     O2248   2.012       .  S
Cu1844     O2250   2.000       .  S
C1845      C1922   1.472       .  S
C1846      C1954   1.466       .  S
C1847      C1886   1.470       .  S
C1848      C1862   1.467       .  S
C1849      C1850   1.341       .  D
C1849      H1851   1.086       .  S
C1850      H1852   1.085       .  S
C1853      C1854   1.339       .  D
C1853      H1855   1.084       .  S
C1854      H1856   1.087       .  S
C1857      C1858   1.342       .  D
C1857      H1859   1.085       .  S
C1858      H1860   1.086       .  S
C1861      C1862   1.337       .  D
C1861      H1863   1.085       .  S
C1862      H1864   1.086       .  S
C1865      C1866   1.335       .  D
C1865      H1867   1.087       .  S
C1866      H1868   1.086       .  S
C1869      C1870   1.337       .  D
C1869      H1871   1.086       .  S
C1870      H1872   1.086       .  S
C1873      C1874   1.340       .  D
C1873      H1875   1.086       .  S
C1874      H1876   1.084       .  S
C1877      C1878   1.343       .  D
C1877      H1879   1.087       .  S
C1878      H1880   1.086       .  S
C1881      C1882   1.338       .  D
C1881      H1883   1.085       .  S
C1882      H1884   1.084       .  S
C1885      C1886   1.339       .  D
C1885      H1887   1.086       .  S
C1886      H1888   1.086       .  S
C1889      C1890   1.341       .  D
C1889      H1891   1.086       .  S
C1890      H1892   1.085       .  S
C1893      C1894   1.341       .  D
C1893      H1895   1.085       .  S
C1894      H1896   1.087       .  S
C1897      C1898   1.343       .  D
C1897      H1899   1.086       .  S
C1898      H1900   1.086       .  S
C1901      C1902   1.344       .  D
C1901      H1903   1.083       .  S
C1902      H1904   1.084       .  S
C1905      C1906   1.340       .  D
C1905      H1907   1.086       .  S
C1906      H1908   1.086       .  S
C1909      C1910   1.343       .  D
C1909      H1911   1.085       .  S
C1910      H1912   1.085       .  S
C1913      C1914   1.341       .  D
C1913      H1915   1.085       .  S
C1914      H1916   1.087       .  S
C1917      C1918   1.339       .  D
C1917      H1919   1.084       .  S
C1918      H1920   1.085       .  S
C1921      C1922   1.343       .  D
C1921      H1923   1.086       .  S
C1922      H1924   1.084       .  S
C1925      C1926   1.341       .  D
C1925      H1927   1.084       .  S
C1926      H1928   1.088       .  S
C1929      C1930   1.343       .  D
C1929      H1931   1.082       .  S
C1930      H1932   1.085       .  S
C1933      C1934   1.341       .  D
C1933      H1935   1.086       .  S
C1934      H1936   1.086       .  S
C1937      C1938   1.337       .  D
C1937      H1939   1.087       .  S
C1938      H1940   1.087       .  S
C1941      C1942   1.344       .  D
C1941      H1943   1.085       .  S
C1942      H1944   1.087       .  S
C1945      C1946   1.347       .  D
C1945      H1947   1.088       .  S
C1946      H1948   1.079       .  S
C1949      C1950   1.342       .  D
C1949      H1951   1.083       .  S
C1950      H1952   1.087       .  S
C1953      C1954   1.341       .  D
C1953      H1955   1.086       .  S
C1954      H1956   1.085       .  S
C1957      C1958   1.341       .  D
C1957      H1959   1.088       .  S
C1958      H1960   1.082       .  S
C1961      C1962   1.348       .  D
C1961      H1963   1.084       .  S
C1962      H1964   1.086       .  S
C1965      C1966   1.342       .  D
C1965      H1967   1.084       .  S
C1966      H1968   1.086       .  S
C1969      C1970   1.336       .  D
C1969      H1971   1.087       .  S
C1970      H1972   1.086       .  S
C1973      C1974   1.348       .  D
C1973      H1975   1.086       .  S
C1974      H1976   1.081       .  S
C1977      C1978   1.340       .  D
C1977      H1979   1.086       .  S
C1978      H1980   1.087       .  S
C1981      C1982   1.338       .  D
C1981      H1983   1.084       .  S
C1982      H1984   1.087       .  S
C1985      C1986   1.341       .  D
C1985      H1987   1.087       .  S
C1986      H1988   1.085       .  S
C1989      C1990   1.342       .  D
C1989      H1991   1.086       .  S
C1990      H1992   1.087       .  S
C1993      C1994   1.346       .  D
C1993      H1995   1.085       .  S
C1994      H1996   1.087       .  S
C1997      C1998   1.335       .  D
C1997      H1999   1.088       .  S
C1998      H2000   1.083       .  S
C2001      C2002   1.335       .  D
C2001      H2003   1.087       .  S
C2002      H2004   1.086       .  S
C2005      C2006   1.342       .  D
C2005      H2007   1.086       .  S
C2006      H2008   1.086       .  S
C2009      C2010   1.340       .  D
C2009      H2011   1.087       .  S
C2010      H2012   1.086       .  S
C2013      C2014   1.339       .  D
C2013      H2015   1.087       .  S
C2014      H2016   1.086       .  S
C2017      C2018   1.338       .  D
C2017      H2019   1.088       .  S
C2018      H2020   1.085       .  S
C2021      C2022   1.343       .  D
C2021      H2023   1.086       .  S
C2022      H2024   1.085       .  S
C2025      C2026   1.339       .  D
C2025      H2027   1.085       .  S
C2026      H2028   1.087       .  S
C2029      C2030   1.340       .  D
C2029      H2031   1.086       .  S
C2030      H2032   1.086       .  S
C2033      C2034   1.345       .  D
C2033      H2035   1.087       .  S
C2034      H2036   1.085       .  S
C2037      C2038   1.346       .  D
C2037      H2039   1.084       .  S
C2038      H2040   1.083       .  S
O2041      C2051   1.272       .  A
O2042      C2052   1.276       .  A
O2042     Cu2049   1.998       .  S
O2043      C2053   1.283       .  A
O2044      C2054   1.279       .  A
O2044     Cu2049   2.023       .  S
O2045      C2054   1.276       .  A
O2046      C2053   1.272       .  A
O2046     Cu2050   1.989   1_655  S
O2047      C2052   1.278       .  A
O2048      C2051   1.283       .  A
O2048     Cu2050   2.043   1_655  S
C2051      C2433   1.474       .  S
C2052      C2438   1.465       .  S
C2053      C2442   1.474       .  S
C2054      C2446   1.471       .  S
C2055      C2429   1.495       .  S
C2055      C2056   1.416       .  A
C2055      C2060   1.415       .  A
C2056      C2421   1.481       .  S
C2056      C2057   1.414       .  A
C2057      C2445   1.486       .  S
C2057      C2058   1.418       .  A
C2058      C2417   1.491       .  S
C2058      C2059   1.414       .  A
C2059      C2425   1.496       .  S
C2059      C2060   1.418       .  A
C2060      C2414   1.485       .  S
C2061      C2441   1.489       .  S
C2061      C2062   1.415       .  A
C2061      C2066   1.421       .  A
C2062      C2402   1.497       .  S
C2062      C2063   1.415       .  A
C2063      C2409   1.483       .  S
C2063      C2064   1.413       .  A
C2064      C2393   1.491       .  S
C2064      C2065   1.420       .  A
C2065      C2405   1.495       .  S
C2065      C2066   1.421       .  A
C2066      C2397   1.499       .  S
O2067      C2077   1.277       .  A
O2067     Cu2891   2.009       .  S
O2068      C2078   1.278       .  A
O2068     Cu2075   2.008   1_545  S
O2069      C2079   1.276       .  A
O2069     Cu2075   2.003   1_545  S
O2070      C2080   1.274       .  A
O2070     Cu2891   1.996       .  S
O2071      C2080   1.279       .  A
O2071     Cu2076   2.023       .  S
O2072      C2079   1.280       .  A
O2072     Cu2892   2.017   1_545  S
O2073      C2078   1.277       .  A
O2073     Cu2892   2.011   1_545  S
O2074      C2077   1.277       .  A
O2074     Cu2076   2.003       .  S
Cu2075     O2883   2.020       .  S
Cu2075     O2886   1.991       .  S
Cu2075    Cu2892   2.376       .  S
Cu2076     O2888   2.020       .  S
Cu2076     O2889   2.012       .  S
Cu2076    Cu2891   2.378       .  S
C2077      C2381   1.469       .  S
C2078      C2385   1.467       .  S
C2079      C2430   1.474       .  S
C2080      C2389   1.464       .  S
C2081      C2390   1.489       .  S
C2081      C2082   1.423       .  A
C2081      C2086   1.422       .  A
C2082      C2361   1.496       .  S
C2082      C2083   1.415       .  A
C2083      C2374   1.486       .  S
C2083      C2084   1.413       .  A
C2084      C2365   1.484       .  S
C2084      C2085   1.409       .  A
C2085      C2378   1.493       .  S
C2085      C2086   1.415       .  A
C2086      C2369   1.492       .  S
O2087      C2097   1.282       .  A
O2088      C2098   1.281       .  A
O2088     Cu2095   2.027   1_655  S
O2089      C2099   1.273       .  A
O2090      C2100   1.272       .  A
O2090     Cu2095   1.986   1_655  S
O2091      C2100   1.283       .  A
O2092      C2099   1.280       .  A
O2092     Cu2096   2.027       .  S
O2093      C2098   1.274       .  A
O2094      C2097   1.276       .  A
O2094     Cu2096   2.009       .  S
C2097      C2357   1.481       .  S
C2098      C2377   1.471       .  S
C2099      C2349   1.463       .  S
C2100      C2354   1.471       .  S
C2101      C2334   1.494       .  S
C2101      C2102   1.419       .  A
C2101      C2106   1.414       .  A
C2102      C2358   1.493       .  S
C2102      C2103   1.422       .  A
C2103      C2337   1.493       .  S
C2103      C2104   1.422       .  A
C2104      C2345   1.485       .  S
C2104      C2105   1.414       .  A
C2105      C2329   1.490       .  S
C2105      C2106   1.410       .  A
C2106      C2341   1.486       .  S
O2107      C2117   1.275       .  A
O2107     Cu2931   2.001   1_545  S
O2108      C2118   1.278       .  A
O2108     Cu2115   2.000       .  S
O2109      C2119   1.277       .  A
O2109     Cu2115   2.009       .  S
O2110      C2120   1.278       .  A
O2110     Cu2931   2.011   1_545  S
O2111      C2120   1.275       .  A
O2111     Cu2116   2.002       .  S
O2112      C2119   1.277       .  A
O2112     Cu2932   2.012       .  S
O2113      C2118   1.276       .  A
O2113     Cu2932   2.006       .  S
O2114      C2117   1.279       .  A
O2114     Cu2116   2.009       .  S
Cu2115     O2923   2.001       .  S
Cu2115     O2926   2.012       .  S
Cu2115    Cu2932   2.378       .  S
Cu2116     O2928   2.001   1_545  S
Cu2116     O2929   2.012   1_545  S
Cu2116    Cu2931   2.379   1_545  S
C2117      C2321   1.465       .  S
C2118      C2325   1.468       .  S
C2119      C2346   1.469       .  S
C2120      C2410   1.463       .  S
O2121      C2131   1.273       .  A
O2122      C2132   1.273       .  A
O2122     Cu2129   1.992       .  S
O2123      C2133   1.281       .  A
O2123     Cu2129   2.034       .  S
O2124      C2134   1.280       .  A
O2125      C2134   1.274       .  A
O2125     Cu2130   1.990       .  S
O2126      C2133   1.275       .  A
O2127      C2132   1.282       .  A
O2128      C2131   1.281       .  A
O2128     Cu2130   2.023       .  S
C2131      C2342   1.469       .  S
C2132      C2426   1.470       .  S
C2133      C2317   1.475       .  S
C2134      C2313   1.466       .  S
O2135      C2145   1.279       .  A
O2136      C2146   1.280       .  A
O2136     Cu2143   2.031       .  S
O2137      C2147   1.278       .  A
O2137     Cu2143   2.006       .  S
O2138      C2148   1.277       .  A
O2139      C2148   1.277       .  A
O2139     Cu2144   1.998       .  S
O2140      C2147   1.278       .  A
O2141      C2146   1.274       .  A
O2142      C2145   1.276       .  A
O2142     Cu2144   2.009       .  S
C2145      C2373   1.474       .  S
C2146      C2406   1.467       .  S
C2147      C2310   1.475       .  S
C2148      C2305   1.467       .  S
C2149      C2326   1.486       .  S
C2149      C2150   1.414       .  A
C2149      C2154   1.414       .  A
C2150      C2302   1.492       .  S
C2150      C2151   1.414       .  A
C2151      C2353   1.491       .  S
C2151      C2152   1.418       .  A
C2152      C2297   1.491       .  S
C2152      C2153   1.419       .  A
C2153      C2309   1.497       .  S
C2153      C2154   1.419       .  A
C2154      C2293   1.480       .  S
O2155      C2165   1.276       .  A
O2155     Cu2979   1.991       .  S
O2156      C2166   1.281       .  A
O2156     Cu2163   2.027       .  S
O2157      C2167   1.277       .  A
O2157     Cu2163   1.999       .  S
O2158      C2168   1.281       .  A
O2158     Cu2979   2.025       .  S
O2159      C2168   1.273       .  A
O2159     Cu2164   1.984       .  S
O2160      C2167   1.277       .  A
O2160     Cu2980   2.010       .  S
O2161      C2166   1.274       .  A
O2161     Cu2980   1.994       .  S
O2162      C2165   1.279       .  A
O2162     Cu2164   2.019       .  S
Cu2163     O2971   2.023   1_545  S
Cu2163     O2974   2.003   1_545  S
Cu2163    Cu2980   2.376       .  S
Cu2164     O2976   1.988       .  S
Cu2164     O2977   2.021       .  S
Cu2164    Cu2979   2.377       .  S
C2165      C2301   1.471       .  S
C2166      C2289   1.472       .  S
C2167      C2401   1.470       .  S
C2168      C2370   1.468       .  S
C2169      C2386   1.484       .  S
C2169      C2170   1.423       .  A
C2169      C2174   1.415       .  A
C2170      C2290   1.494       .  S
C2170      C2171   1.420       .  A
C2171      C2434   1.494       .  S
C2171      C2172   1.412       .  A
C2172      C2285   1.479       .  S
C2172      C2173   1.412       .  A
C2173      C2306   1.486       .  S
C2173      C2174   1.410       .  A
C2174      C2281   1.489       .  S
O2175      C2185   1.278       .  A
O2176      C2186   1.277       .  A
O2176     Cu2183   2.001       .  S
O2177      C2187   1.278       .  A
O2177     Cu2183   1.999       .  S
O2178      C2188   1.275       .  A
O2179      C2188   1.279       .  A
O2179     Cu2184   2.002       .  S
O2180      C2187   1.277       .  A
O2181      C2186   1.277       .  A
O2182      C2185   1.276       .  A
O2182     Cu2184   1.990       .  S
C2185      C2286   1.466       .  S
C2186      C2277   1.471       .  S
C2187      C2418   1.472       .  S
C2188      C2366   1.468       .  S
C2189      C2382   1.486       .  S
C2189      C2190   1.412       .  A
C2189      C2194   1.421       .  A
C2190      C2273   1.485       .  S
C2190      C2191   1.407       .  A
C2191      C2350   1.491       .  S
C2191      C2192   1.419       .  A
C2192      C2278   1.487       .  S
C2192      C2193   1.428       .  A
C2193      C2318   1.509       .  S
C2193      C2194   1.425       .  A
C2194      C2269   1.501       .  S
O2195      C2205   1.278       .  A
O2195     Cu3019   2.012       .  S
O2196      C2206   1.282       .  A
O2196     Cu2203   2.033   1_545  S
O2197      C2207   1.275       .  A
O2197     Cu2203   1.997   1_545  S
O2198      C2208   1.277       .  A
O2198     Cu3019   2.001       .  S
O2199      C2208   1.278       .  A
O2199     Cu2204   2.009       .  S
O2200      C2207   1.279       .  A
O2200     Cu3020   2.014       .  S
O2201      C2206   1.275       .  A
O2201     Cu3020   1.998       .  S
O2202      C2205   1.274       .  A
O2202     Cu2204   1.990       .  S
Cu2203     O3011   2.016       .  S
Cu2203     O3014   1.998       .  S
Cu2203    Cu3020   2.377   1_565  S
Cu2204     O3016   2.014       .  S
Cu2204     O3017   2.001       .  S
Cu2204    Cu3019   2.378       .  S
C2205      C2274   1.459       .  S
C2206      C2265   1.477       .  S
C2207      C2422   1.466       .  S
C2208      C2338   1.472       .  S
C2209      C2437   1.483       .  S
C2209      C2210   1.418       .  A
C2209      C2214   1.409       .  A
C2210      C2262   1.487       .  S
C2210      C2211   1.424       .  A
C2211      C2314   1.497       .  S
C2211      C2212   1.421       .  A
C2212      C2257   1.498       .  S
C2212      C2213   1.415       .  A
C2213      C2322   1.481       .  S
C2213      C2214   1.414       .  A
C2214      C2266   1.494       .  S
O2215      C2225   1.274       .  A
O2216      C2226   1.273       .  A
O2216     Cu2223   1.987       .  S
O2217      C2227   1.280       .  A
O2217     Cu2223   2.023       .  S
O2218      C2228   1.281       .  A
O2219      C2228   1.275       .  A
O2219     Cu2224   2.006   1_655  S
O2220      C2227   1.274       .  A
O2221      C2226   1.283       .  A
O2222      C2225   1.280       .  A
O2222     Cu2224   2.028   1_655  S
C2225      C2398   1.467       .  S
C2226      C2333   1.474       .  S
C2227      C2261   1.468       .  S
C2228      C2298   1.478       .  S
O2229      C2239   1.278       .  A
O2230      C2240   1.275       .  A
O2230     Cu2237   1.999   1_556  S
O2231      C2241   1.277       .  A
O2232      C2242   1.280       .  A
O2232     Cu2237   2.016   1_556  S
O2233      C2242   1.278       .  A
O2234      C2241   1.278       .  A
O2234     Cu2238   2.002       .  S
O2235      C2240   1.279       .  A
O2236      C2239   1.275       .  A
O2236     Cu2238   2.001       .  S
C2239      C2413   1.469       .  S
C2240      C2394   1.470       .  S
C2241      C2282   1.470       .  S
C2242      C2258   1.483       .  S
O2243      C2253   1.277       .  A
O2244      C2254   1.275       .  A
O2244     Cu2251   1.996       .  S
O2245      C2255   1.274       .  A
O2246      C2256   1.278       .  A
O2246     Cu2251   2.010       .  S
O2247      C2256   1.279       .  A
O2247     Cu2252   2.023       .  S
O2248      C2255   1.278       .  A
O2249      C2254   1.281       .  A
O2249     Cu2252   2.022       .  S
O2250      C2253   1.277       .  A
Cu2251    Cu2252   2.375       .  S
C2253      C2330   1.467       .  S
C2254      C2362   1.474       .  S
C2255      C2294   1.462       .  S
C2256      C2270   1.478       .  S
C2257      C2258   1.346       .  D
C2257      H2259   1.087       .  S
C2258      H2260   1.086       .  S
C2261      C2262   1.345       .  D
C2261      H2263   1.082       .  S
C2262      H2264   1.087       .  S
C2265      C2266   1.341       .  D
C2265      H2267   1.085       .  S
C2266      H2268   1.086       .  S
C2269      C2270   1.346       .  D
C2269      H2271   1.087       .  S
C2270      H2272   1.083       .  S
C2273      C2274   1.337       .  D
C2273      H2275   1.086       .  S
C2274      H2276   1.085       .  S
C2277      C2278   1.345       .  D
C2277      H2279   1.086       .  S
C2278      H2280   1.087       .  S
C2281      C2282   1.341       .  D
C2281      H2283   1.087       .  S
C2282      H2284   1.083       .  S
C2285      C2286   1.339       .  D
C2285      H2287   1.087       .  S
C2286      H2288   1.085       .  S
C2289      C2290   1.340       .  D
C2289      H2291   1.085       .  S
C2290      H2292   1.084       .  S
C2293      C2294   1.337       .  D
C2293      H2295   1.087       .  S
C2294      H2296   1.087       .  S
C2297      C2298   1.340       .  D
C2297      H2299   1.086       .  S
C2298      H2300   1.086       .  S
C2301      C2302   1.344       .  D
C2301      H2303   1.083       .  S
C2302      H2304   1.086       .  S
C2305      C2306   1.340       .  D
C2305      H2307   1.083       .  S
C2306      H2308   1.087       .  S
C2309      C2310   1.345       .  D
C2309      H2311   1.083       .  S
C2310      H2312   1.084       .  S
C2313      C2314   1.345       .  D
C2313      H2315   1.084       .  S
C2314      H2316   1.088       .  S
C2317      C2318   1.350       .  D
C2317      H2319   1.083       .  S
C2318      H2320   1.087       .  S
C2321      C2322   1.339       .  D
C2321      H2323   1.086       .  S
C2322      H2324   1.087       .  S
C2325      C2326   1.339       .  D
C2325      H2327   1.085       .  S
C2326      H2328   1.083       .  S
C2329      C2330   1.341       .  D
C2329      H2331   1.086       .  S
C2330      H2332   1.083       .  S
C2333      C2334   1.338       .  D
C2333      H2335   1.085       .  S
C2334      H2336   1.085       .  S
C2337      C2338   1.345       .  D
C2337      H2339   1.084       .  S
C2338      H2340   1.084       .  S
C2341      C2342   1.338       .  D
C2341      H2343   1.087       .  S
C2342      H2344   1.086       .  S
C2345      C2346   1.340       .  D
C2345      H2347   1.087       .  S
C2346      H2348   1.087       .  S
C2349      C2350   1.343       .  D
C2349      H2351   1.086       .  S
C2350      H2352   1.087       .  S
C2353      C2354   1.337       .  D
C2353      H2355   1.086       .  S
C2354      H2356   1.086       .  S
C2357      C2358   1.341       .  D
C2357      H2359   1.086       .  S
C2358      H2360   1.085       .  S
C2361      C2362   1.341       .  D
C2361      H2363   1.084       .  S
C2362      H2364   1.085       .  S
C2365      C2366   1.339       .  D
C2365      H2367   1.087       .  S
C2366      H2368   1.085       .  S
C2369      C2370   1.338       .  D
C2369      H2371   1.084       .  S
C2370      H2372   1.086       .  S
C2373      C2374   1.340       .  D
C2373      H2375   1.086       .  S
C2374      H2376   1.085       .  S
C2377      C2378   1.339       .  D
C2377      H2379   1.086       .  S
C2378      H2380   1.087       .  S
C2381      C2382   1.339       .  D
C2381      H2383   1.084       .  S
C2382      H2384   1.086       .  S
C2385      C2386   1.336       .  D
C2385      H2387   1.086       .  S
C2386      H2388   1.087       .  S
C2389      C2390   1.338       .  D
C2389      H2391   1.086       .  S
C2390      H2392   1.087       .  S
C2393      C2394   1.339       .  D
C2393      H2395   1.083       .  S
C2394      H2396   1.085       .  S
C2397      C2398   1.346       .  D
C2397      H2399   1.087       .  S
C2398      H2400   1.085       .  S
C2401      C2402   1.344       .  D
C2401      H2403   1.084       .  S
C2402      H2404   1.086       .  S
C2405      C2406   1.338       .  D
C2405      H2407   1.086       .  S
C2406      H2408   1.084       .  S
C2409      C2410   1.336       .  D
C2409      H2411   1.087       .  S
C2410      H2412   1.087       .  S
C2413      C2414   1.340       .  D
C2413      H2415   1.086       .  S
C2414      H2416   1.086       .  S
C2417      C2418   1.341       .  D
C2417      H2419   1.088       .  S
C2418      H2420   1.082       .  S
C2421      C2422   1.335       .  D
C2421      H2423   1.086       .  S
C2422      H2424   1.086       .  S
C2425      C2426   1.340       .  D
C2425      H2427   1.088       .  S
C2426      H2428   1.086       .  S
C2429      C2430   1.342       .  D
C2429      H2431   1.086       .  S
C2430      H2432   1.085       .  S
C2433      C2434   1.338       .  D
C2433      H2435   1.085       .  S
C2434      H2436   1.087       .  S
C2437      C2438   1.339       .  D
C2437      H2439   1.087       .  S
C2438      H2440   1.086       .  S
C2441      C2442   1.339       .  D
C2441      H2443   1.086       .  S
C2442      H2444   1.087       .  S
C2445      C2446   1.343       .  D
C2445      H2447   1.084       .  S
C2446      H2448   1.084       .  S
O2449      C2459   1.275       .  A
O2450      C2460   1.275       .  A
O2450     Cu2457   2.003       .  S
O2451      C2461   1.280       .  A
O2452      C2462   1.279       .  A
O2452     Cu2457   2.016       .  S
O2453      C2462   1.278       .  A
O2454      C2461   1.277       .  A
O2454     Cu2458   2.010       .  S
O2455      C2460   1.280       .  A
O2456      C2459   1.280       .  A
O2456     Cu2458   2.017       .  S
C2459      C2841   1.471       .  S
C2460      C2846   1.473       .  S
C2461      C2850   1.477       .  S
C2462      C2854   1.475       .  S
C2463      C2837   1.500       .  S
C2463      C2464   1.418       .  A
C2463      C2468   1.418       .  A
C2464      C2829   1.485       .  S
C2464      C2465   1.419       .  A
C2465      C2853   1.497       .  S
C2465      C2466   1.419       .  A
C2466      C2825   1.501       .  S
C2466      C2467   1.422       .  A
C2467      C2833   1.494       .  S
C2467      C2468   1.424       .  A
C2468      C2822   1.492       .  S
C2469      C2849   1.491       .  S
C2469      C2470   1.419       .  A
C2469      C2474   1.422       .  A
C2470      C2810   1.502       .  S
C2470      C2471   1.420       .  A
C2471      C2817   1.480       .  S
C2471      C2472   1.412       .  A
C2472      C2801   1.492       .  S
C2472      C2473   1.416       .  A
C2473      C2813   1.491       .  S
C2473      C2474   1.419       .  A
C2474      C2805   1.497       .  S
O2475      C2485   1.278       .  A
O2476      C2486   1.278       .  A
O2476     Cu2483   2.014       .  S
O2477      C2487   1.277       .  A
O2477     Cu2483   2.010       .  S
O2478      C2488   1.277       .  A
O2479      C2488   1.275       .  A
O2479     Cu2484   1.999       .  S
O2480      C2487   1.280       .  A
O2481      C2486   1.277       .  A
O2482      C2485   1.278       .  A
O2482     Cu2484   2.003       .  S
C2485      C2789   1.478       .  S
C2486      C2793   1.472       .  S
C2487      C2838   1.479       .  S
C2488      C2797   1.459       .  S
C2489      C2798   1.487       .  S
C2489      C2490   1.415       .  A
C2489      C2494   1.417       .  A
C2490      C2769   1.485       .  S
C2490      C2491   1.415       .  A
C2491      C2782   1.493       .  S
C2491      C2492   1.414       .  A
C2492      C2773   1.486       .  S
C2492      C2493   1.419       .  A
C2493      C2786   1.488       .  S
C2493      C2494   1.418       .  A
C2494      C2777   1.499       .  S
O2495      C2505   1.279       .  A
O2496      C2506   1.282       .  A
O2496     Cu2503   2.034   1_655  S
O2497      C2507   1.275       .  A
O2498      C2508   1.275       .  A
O2498     Cu2503   1.999   1_655  S
O2499      C2508   1.279       .  A
O2500      C2507   1.280       .  A
O2500     Cu2504   2.020       .  S
O2501      C2506   1.273       .  A
O2502      C2505   1.278       .  A
O2502     Cu2504   2.021       .  S
C2505      C2765   1.480       .  S
C2506      C2785   1.472       .  S
C2507      C2757   1.475       .  S
C2508      C2762   1.468       .  S
C2509      C2742   1.487       .  S
C2509      C2510   1.421       .  A
C2509      C2514   1.419       .  A
C2510      C2766   1.498       .  S
C2510      C2511   1.419       .  A
C2511      C2745   1.497       .  S
C2511      C2512   1.419       .  A
C2512      C2753   1.479       .  S
C2512      C2513   1.418       .  A
C2513      C2737   1.497       .  S
C2513      C2514   1.416       .  A
C2514      C2749   1.498       .  S
O2515      C2525   1.275       .  A
O2516      C2526   1.277       .  A
O2516     Cu2523   2.000       .  S
O2517      C2527   1.278       .  A
O2517     Cu2523   2.013       .  S
O2518      C2528   1.277       .  A
O2519      C2528   1.274       .  A
O2519     Cu2524   1.994       .  S
O2520      C2527   1.274       .  A
O2521      C2526   1.279       .  A
O2522      C2525   1.278       .  A
O2522     Cu2524   2.007       .  S
C2525      C2729   1.464       .  S
C2526      C2733   1.476       .  S
C2527      C2754   1.461       .  S
C2528      C2818   1.458       .  S
O2529      C2539   1.277       .  A
O2529     Cu2945   2.014       .  S
O2530      C2540   1.275       .  A
O2530     Cu2537   2.004       .  S
O2531      C2541   1.280       .  A
O2531     Cu2537   2.015       .  S
O2532      C2542   1.278       .  A
O2532     Cu2945   2.021       .  S
O2533      C2542   1.277       .  A
O2533     Cu2538   2.011       .  S
O2534      C2541   1.275       .  A
O2534     Cu2946   2.005   1_554  S
O2535      C2540   1.279       .  A
O2535     Cu2946   2.020   1_554  S
O2536      C2539   1.280       .  A
O2536     Cu2538   2.020       .  S
Cu2537     O2937   1.995   1_554  S
Cu2537     O2940   2.020   1_554  S
Cu2537    Cu2946   2.378   1_554  S
Cu2538     O2942   2.010       .  S
Cu2538     O2943   2.027       .  S
Cu2538    Cu2945   2.373       .  S
C2539      C2750   1.478       .  S
C2540      C2834   1.467       .  S
C2541      C2725   1.474       .  S
C2542      C2721   1.470       .  S
O2543      C2553   1.281       .  A
O2543     Cu2959   2.035   1_554  S
O2544      C2554   1.280       .  A
O2544     Cu2551   2.022       .  S
O2545      C2555   1.277       .  A
O2545     Cu2551   2.001       .  S
O2546      C2556   1.276       .  A
O2546     Cu2959   2.005   1_554  S
O2547      C2556   1.279       .  A
O2547     Cu2552   2.021       .  S
O2548      C2555   1.279       .  A
O2548     Cu2960   2.016       .  S
O2549      C2554   1.273       .  A
O2549     Cu2960   1.987       .  S
O2550      C2553   1.275       .  A
O2550     Cu2552   2.000       .  S
Cu2551     O2951   2.039       .  S
Cu2551     O2954   1.999       .  S
Cu2551    Cu2960   2.377       .  S
Cu2552     O2956   2.015   1_554  S
Cu2552     O2957   1.995   1_554  S
Cu2552    Cu2959   2.376   1_554  S
C2553      C2781   1.476       .  S
C2554      C2814   1.464       .  S
C2555      C2718   1.475       .  S
C2556      C2713   1.471       .  S
C2557      C2734   1.495       .  S
C2557      C2558   1.420       .  A
C2557      C2562   1.414       .  A
C2558      C2710   1.490       .  S
C2558      C2559   1.421       .  A
C2559      C2761   1.503       .  S
C2559      C2560   1.418       .  A
C2560      C2705   1.494       .  S
C2560      C2561   1.423       .  A
C2561      C2717   1.502       .  S
C2561      C2562   1.422       .  A
C2562      C2701   1.484       .  S
O2563      C2573   1.280       .  A
O2564      C2574   1.281       .  A
O2564     Cu2571   2.028       .  S
O2565      C2575   1.278       .  A
O2565     Cu2571   2.011       .  S
O2566      C2576   1.278       .  A
O2567      C2576   1.278       .  A
O2567     Cu2572   2.011       .  S
O2568      C2575   1.278       .  A
O2569      C2574   1.274       .  A
O2570      C2573   1.274       .  A
O2570     Cu2572   1.989       .  S
C2573      C2709   1.467       .  S
C2574      C2697   1.473       .  S
C2575      C2809   1.475       .  S
C2576      C2778   1.476       .  S
C2577      C2794   1.487       .  S
C2577      C2578   1.423       .  A
C2577      C2582   1.417       .  A
C2578      C2698   1.496       .  S
C2578      C2579   1.420       .  A
C2579      C2842   1.490       .  S
C2579      C2580   1.415       .  A
C2580      C2693   1.488       .  S
C2580      C2581   1.412       .  A
C2581      C2714   1.488       .  S
C2581      C2582   1.411       .  A
C2582      C2689   1.487       .  S
O2583      C2593   1.277       .  A
O2584      C2594   1.276       .  A
O2584     Cu2591   2.002       .  S
O2585      C2595   1.278       .  A
O2585     Cu2591   2.013       .  S
O2586      C2596   1.278       .  A
O2587      C2596   1.276       .  A
O2587     Cu2592   2.004   1_655  S
O2588      C2595   1.279       .  A
O2589      C2594   1.279       .  A
O2590      C2593   1.278       .  A
O2590     Cu2592   2.009   1_655  S
C2593      C2694   1.471       .  S
C2594      C2685   1.472       .  S
C2595      C2826   1.477       .  S
C2596      C2774   1.470       .  S
C2597      C2790   1.497       .  S
C2597      C2598   1.417       .  A
C2597      C2602   1.421       .  A
C2598      C2681   1.490       .  S
C2598      C2599   1.417       .  A
C2599      C2758   1.490       .  S
C2599      C2600   1.414       .  A
C2600      C2686   1.490       .  S
C2600      C2601   1.417       .  A
C2601      C2726   1.489       .  S
C2601      C2602   1.416       .  A
C2602      C2677   1.491       .  S
O2603      C2613   1.276       .  A
O2604      C2614   1.278       .  A
O2604     Cu2611   2.007       .  S
O2605      C2615   1.278       .  A
O2605     Cu2611   2.018       .  S
O2606      C2616   1.278       .  A
O2607      C2616   1.278       .  A
O2607     Cu2612   2.019       .  S
O2608      C2615   1.277       .  A
O2609      C2614   1.277       .  A
O2610      C2613   1.276       .  A
O2610     Cu2612   2.002       .  S
C2613      C2682   1.459       .  S
C2614      C2673   1.476       .  S
C2615      C2830   1.468       .  S
C2616      C2746   1.478       .  S
C2617      C2845   1.489       .  S
C2617      C2618   1.420       .  A
C2617      C2622   1.414       .  A
C2618      C2670   1.487       .  S
C2618      C2619   1.423       .  A
C2619      C2722   1.497       .  S
C2619      C2620   1.416       .  A
C2620      C2665   1.493       .  S
C2620      C2621   1.412       .  A
C2621      C2730   1.480       .  S
C2621      C2622   1.413       .  A
C2622      C2674   1.488       .  S
O2623      C2633   1.273       .  A
O2624      C2634   1.274       .  A
O2624     Cu2631   1.993       .  S
O2625      C2635   1.279       .  A
O2625     Cu2631   2.018       .  S
O2626      C2636   1.283       .  A
O2627      C2636   1.274       .  A
O2627     Cu2632   1.997   1_655  S
O2628      C2635   1.275       .  A
O2629      C2634   1.280       .  A
O2630      C2633   1.280       .  A
O2630     Cu2632   2.022   1_655  S
C2633      C2806   1.462       .  S
C2634      C2741   1.467       .  S
C2635      C2669   1.469       .  S
C2636      C2706   1.478       .  S
O2637      C2647   1.279       .  A
O2637     Cu3053   2.012   1_554  S
O2638      C2648   1.276       .  A
O2638     Cu2645   2.009       .  S
O2639      C2649   1.275       .  A
O2639     Cu3053   2.000   1_554  S
O2640      C2650   1.279       .  A
O2640     Cu2645   2.007       .  S
O2641      C2650   1.277       .  A
O2641     Cu3054   2.015       .  S
O2642      C2649   1.279       .  A
O2642     Cu2646   2.011   1_554  S
O2643      C2648   1.279       .  A
O2643     Cu3054   2.009       .  S
O2644      C2647   1.276       .  A
O2644     Cu2646   2.004   1_554  S
Cu2645     O3045   2.010       .  S
Cu2645     O3047   2.004       .  S
Cu2645    Cu3054   2.375       .  S
Cu2646     O3049   2.020       .  S
Cu2646     O3051   2.014       .  S
Cu2646    Cu3053   2.376       .  S
C2647      C2821   1.473       .  S
C2648      C2802   1.473       .  S
C2649      C2690   1.467       .  S
C2650      C2666   1.477       .  S
O2651      C2661   1.280       .  A
O2651     Cu3067   2.024       .  S
O2652      C2662   1.279       .  A
O2652     Cu2659   2.015       .  S
O2653      C2663   1.272       .  A
O2653     Cu3067   1.985       .  S
O2654      C2664   1.276       .  A
O2654     Cu2659   2.001       .  S
O2655      C2664   1.279       .  A
O2655     Cu2660   2.019   1_554  S
O2656      C2663   1.281       .  A
O2656     Cu3068   2.030       .  S
O2657      C2662   1.275       .  A
O2657     Cu2660   2.000   1_554  S
O2658      C2661   1.276       .  A
O2658     Cu3068   1.997       .  S
Cu2659     O3059   2.012   1_554  S
Cu2659     O3061   1.992   1_554  S
Cu2659    Cu2660   2.378   1_554  S
Cu2660     O3064   2.016       .  S
Cu2660     O3066   1.996       .  S
C2661      C2738   1.476       .  S
C2662      C2770   1.468       .  S
C2663      C2702   1.464       .  S
C2664      C2678   1.471       .  S
C2665      C2666   1.345       .  D
C2665      H2667   1.086       .  S
C2666      H2668   1.087       .  S
C2669      C2670   1.344       .  D
C2669      H2671   1.083       .  S
C2670      H2672   1.087       .  S
C2673      C2674   1.342       .  D
C2673      H2675   1.084       .  S
C2674      H2676   1.085       .  S
C2677      C2678   1.339       .  D
C2677      H2679   1.085       .  S
C2678      H2680   1.085       .  S
C2681      C2682   1.338       .  D
C2681      H2683   1.087       .  S
C2682      H2684   1.085       .  S
C2685      C2686   1.340       .  D
C2685      H2687   1.085       .  S
C2686      H2688   1.085       .  S
C2689      C2690   1.339       .  D
C2689      H2691   1.087       .  S
C2690      H2692   1.084       .  S
C2693      C2694   1.342       .  D
C2693      H2695   1.087       .  S
C2694      H2696   1.084       .  S
C2697      C2698   1.340       .  D
C2697      H2699   1.085       .  S
C2698      H2700   1.083       .  S
C2701      C2702   1.336       .  D
C2701      H2703   1.087       .  S
C2702      H2704   1.087       .  S
C2705      C2706   1.341       .  D
C2705      H2707   1.086       .  S
C2706      H2708   1.087       .  S
C2709      C2710   1.339       .  D
C2709      H2711   1.085       .  S
C2710      H2712   1.087       .  S
C2713      C2714   1.340       .  D
C2713      H2715   1.085       .  S
C2714      H2716   1.086       .  S
C2717      C2718   1.348       .  D
C2717      H2719   1.084       .  S
C2718      H2720   1.083       .  S
C2721      C2722   1.342       .  D
C2721      H2723   1.085       .  S
C2722      H2724   1.087       .  S
C2725      C2726   1.339       .  D
C2725      H2727   1.085       .  S
C2726      H2728   1.085       .  S
C2729      C2730   1.337       .  D
C2729      H2731   1.086       .  S
C2730      H2732   1.087       .  S
C2733      C2734   1.344       .  D
C2733      H2735   1.085       .  S
C2734      H2736   1.083       .  S
C2737      C2738   1.347       .  D
C2737      H2739   1.085       .  S
C2738      H2740   1.083       .  S
C2741      C2742   1.336       .  D
C2741      H2743   1.086       .  S
C2742      H2744   1.086       .  S
C2745      C2746   1.345       .  D
C2745      H2747   1.082       .  S
C2746      H2748   1.085       .  S
C2749      C2750   1.344       .  D
C2749      H2751   1.086       .  S
C2750      H2752   1.085       .  S
C2753      C2754   1.335       .  D
C2753      H2755   1.087       .  S
C2754      H2756   1.087       .  S
C2757      C2758   1.343       .  D
C2757      H2759   1.086       .  S
C2758      H2760   1.087       .  S
C2761      C2762   1.345       .  D
C2761      H2763   1.087       .  S
C2762      H2764   1.082       .  S
C2765      C2766   1.343       .  D
C2765      H2767   1.084       .  S
C2766      H2768   1.085       .  S
C2769      C2770   1.341       .  D
C2769      H2771   1.086       .  S
C2770      H2772   1.085       .  S
C2773      C2774   1.341       .  D
C2773      H2775   1.087       .  S
C2774      H2776   1.084       .  S
C2777      C2778   1.346       .  D
C2777      H2779   1.084       .  S
C2778      H2780   1.086       .  S
C2781      C2782   1.341       .  D
C2781      H2783   1.085       .  S
C2782      H2784   1.086       .  S
C2785      C2786   1.338       .  D
C2785      H2787   1.087       .  S
C2786      H2788   1.085       .  S
C2789      C2790   1.346       .  D
C2789      H2791   1.086       .  S
C2790      H2792   1.082       .  S
C2793      C2794   1.340       .  D
C2793      H2795   1.086       .  S
C2794      H2796   1.087       .  S
C2797      C2798   1.337       .  D
C2797      H2799   1.085       .  S
C2798      H2800   1.087       .  S
C2801      C2802   1.341       .  D
C2801      H2803   1.083       .  S
C2802      H2804   1.086       .  S
C2805      C2806   1.346       .  D
C2805      H2807   1.087       .  S
C2806      H2808   1.084       .  S
C2809      C2810   1.346       .  D
C2809      H2811   1.085       .  S
C2810      H2812   1.085       .  S
C2813      C2814   1.338       .  D
C2813      H2815   1.087       .  S
C2814      H2816   1.084       .  S
C2817      C2818   1.334       .  D
C2817      H2819   1.087       .  S
C2818      H2820   1.087       .  S
C2821      C2822   1.342       .  D
C2821      H2823   1.086       .  S
C2822      H2824   1.086       .  S
C2825      C2826   1.347       .  D
C2825      H2827   1.085       .  S
C2826      H2828   1.086       .  S
C2829      C2830   1.339       .  D
C2829      H2831   1.087       .  S
C2830      H2832   1.086       .  S
C2833      C2834   1.341       .  D
C2833      H2835   1.088       .  S
C2834      H2836   1.086       .  S
C2837      C2838   1.345       .  D
C2837      H2839   1.086       .  S
C2838      H2840   1.085       .  S
C2841      C2842   1.338       .  D
C2841      H2843   1.085       .  S
C2842      H2844   1.087       .  S
C2845      C2846   1.339       .  D
C2845      H2847   1.085       .  S
C2846      H2848   1.086       .  S
C2849      C2850   1.343       .  D
C2849      H2851   1.086       .  S
C2850      H2852   1.087       .  S
C2853      C2854   1.345       .  D
C2853      H2855   1.086       .  S
C2854      H2856   1.083       .  S
O2857      C2867   1.276       .  A
O2858      C2868   1.270       .  A
O2858     Cu2865   1.974       .  S
O2859      C2869   1.280       .  A
O2860      C2870   1.282       .  A
O2860     Cu2865   2.037       .  S
O2861      C2870   1.275       .  A
O2862      C2869   1.276       .  A
O2862     Cu2866   2.007   1_655  S
O2863      C2868   1.282       .  A
O2864      C2867   1.279       .  A
O2864     Cu2866   2.025   1_655  S
C2867      C3249   1.471       .  S
C2868      C3254   1.464       .  S
C2869      C3258   1.473       .  S
C2870      C3262   1.480       .  S
C2871      C3245   1.500       .  S
C2871      C2872   1.419       .  A
C2871      C2876   1.418       .  A
C2872      C3237   1.479       .  S
C2872      C2873   1.413       .  A
C2873      C3261   1.498       .  S
C2873      C2874   1.416       .  A
C2874      C3233   1.493       .  S
C2874      C2875   1.421       .  A
C2875      C3241   1.491       .  S
C2875      C2876   1.421       .  A
C2876      C3230   1.491       .  S
C2877      C3257   1.489       .  S
C2877      C2878   1.410       .  A
C2877      C2882   1.418       .  A
C2878      C3218   1.492       .  S
C2878      C2879   1.413       .  A
C2879      C3225   1.482       .  S
C2879      C2880   1.415       .  A
C2880      C3209   1.493       .  S
C2880      C2881   1.424       .  A
C2881      C3221   1.494       .  S
C2881      C2882   1.422       .  A
C2882      C3213   1.496       .  S
O2883      C2893   1.279       .  A
O2884      C2894   1.277       .  A
O2884     Cu2891   2.007       .  S
O2885      C2895   1.277       .  A
O2885     Cu2891   2.011       .  S
O2886      C2896   1.275       .  A
O2887      C2896   1.276       .  A
O2887     Cu2892   2.004       .  S
O2888      C2895   1.279       .  A
O2889      C2894   1.277       .  A
O2890      C2893   1.277       .  A
O2890     Cu2892   2.003       .  S
C2893      C3197   1.473       .  S
C2894      C3201   1.465       .  S
C2895      C3246   1.477       .  S
C2896      C3205   1.455       .  S
C2897      C3206   1.488       .  S
C2897      C2898   1.413       .  A
C2897      C2902   1.416       .  A
C2898      C3177   1.488       .  S
C2898      C2899   1.413       .  A
C2899      C3190   1.491       .  S
C2899      C2900   1.421       .  A
C2900      C3181   1.485       .  S
C2900      C2901   1.424       .  A
C2901      C3194   1.505       .  S
C2901      C2902   1.418       .  A
C2902      C3185   1.494       .  S
O2903      C2913   1.283       .  A
O2904      C2914   1.279       .  A
O2904     Cu2911   2.021   1_655  S
O2905      C2915   1.274       .  A
O2906      C2916   1.275       .  A
O2906     Cu2911   2.002   1_655  S
O2907      C2916   1.279       .  A
O2908      C2915   1.280       .  A
O2908     Cu2912   2.027       .  S
O2909      C2914   1.276       .  A
O2910      C2913   1.273       .  A
O2910     Cu2912   1.993       .  S
C2913      C3173   1.473       .  S
C2914      C3193   1.470       .  S
C2915      C3165   1.466       .  S
C2916      C3170   1.471       .  S
C2917      C3150   1.495       .  S
C2917      C2918   1.425       .  A
C2917      C2922   1.419       .  A
C2918      C3174   1.496       .  S
C2918      C2919   1.420       .  A
C2919      C3153   1.495       .  S
C2919      C2920   1.419       .  A
C2920      C3161   1.485       .  S
C2920      C2921   1.413       .  A
C2921      C3145   1.492       .  S
C2921      C2922   1.412       .  A
C2922      C3157   1.489       .  S
O2923      C2933   1.275       .  A
O2924      C2934   1.277       .  A
O2924     Cu2931   1.997       .  S
O2925      C2935   1.279       .  A
O2925     Cu2931   2.018       .  S
O2926      C2936   1.278       .  A
O2927      C2936   1.275       .  A
O2927     Cu2932   1.999       .  S
O2928      C2935   1.275       .  A
O2929      C2934   1.277       .  A
O2930      C2933   1.276       .  A
O2930     Cu2932   2.004       .  S
C2933      C3137   1.459       .  S
C2934      C3141   1.472       .  S
C2935      C3162   1.467       .  S
C2936      C3226   1.464       .  S
O2937      C2947   1.274       .  A
O2938      C2948   1.276       .  A
O2938     Cu2945   2.009       .  S
O2939      C2949   1.279       .  A
O2939     Cu2945   2.022       .  S
O2940      C2950   1.279       .  A
O2941      C2950   1.274       .  A
O2941     Cu2946   1.989       .  S
O2942      C2949   1.277       .  A
O2943      C2948   1.280       .  A
O2944      C2947   1.281       .  A
O2944     Cu2946   2.028       .  S
C2947      C3158   1.472       .  S
C2948      C3242   1.472       .  S
C2949      C3133   1.472       .  S
C2950      C3129   1.461       .  S
O2951      C2961   1.282       .  A
O2952      C2962   1.279       .  A
O2952     Cu2959   2.020       .  S
O2953      C2963   1.277       .  A
O2953     Cu2959   2.002       .  S
O2954      C2964   1.274       .  A
O2955      C2964   1.279       .  A
O2955     Cu2960   2.014       .  S
O2956      C2963   1.278       .  A
O2957      C2962   1.275       .  A
O2958      C2961   1.274       .  A
O2958     Cu2960   1.997       .  S
C2961      C3189   1.476       .  S
C2962      C3222   1.468       .  S
C2963      C3126   1.475       .  S
C2964      C3121   1.464       .  S
C2965      C3142   1.490       .  S
C2965      C2966   1.417       .  A
C2965      C2970   1.415       .  A
C2966      C3118   1.494       .  S
C2966      C2967   1.413       .  A
C2967      C3169   1.491       .  S
C2967      C2968   1.419       .  A
C2968      C3113   1.487       .  S
C2968      C2969   1.419       .  A
C2969      C3125   1.499       .  S
C2969      C2970   1.420       .  A
C2970      C3109   1.480       .  S
O2971      C2981   1.280       .  A
O2972      C2982   1.274       .  A
O2972     Cu2979   1.997       .  S
O2973      C2983   1.281       .  A
O2973     Cu2979   2.025       .  S
O2974      C2984   1.277       .  A
O2975      C2984   1.278       .  A
O2975     Cu2980   2.009   1_565  S
O2976      C2983   1.273       .  A
O2977      C2982   1.281       .  A
O2978      C2981   1.275       .  A
O2978     Cu2980   1.997   1_565  S
C2981      C3117   1.471       .  S
C2982      C3105   1.473       .  S
C2983      C3217   1.470       .  S
C2984      C3186   1.472       .  S
C2985      C3202   1.494       .  S
C2985      C2986   1.419       .  A
C2985      C2990   1.414       .  A
C2986      C3106   1.489       .  S
C2986      C2987   1.423       .  A
C2987      C3250   1.503       .  S
C2987      C2988   1.423       .  A
C2988      C3101   1.490       .  S
C2988      C2989   1.417       .  A
C2989      C3122   1.483       .  S
C2989      C2990   1.412       .  A
C2990      C3097   1.495       .  S
O2991      C3001   1.280       .  A
O2992      C3002   1.279       .  A
O2992     Cu2999   2.008       .  S
O2993      C3003   1.275       .  A
O2993     Cu2999   1.997       .  S
O2994      C3004   1.273       .  A
O2995      C3004   1.280       .  A
O2995     Cu3000   2.017       .  S
O2996      C3003   1.280       .  A
O2997      C3002   1.276       .  A
O2998      C3001   1.276       .  A
O2998     Cu3000   1.998       .  S
C3001      C3102   1.476       .  S
C3002      C3093   1.473       .  S
C3003      C3234   1.471       .  S
C3004      C3182   1.467       .  S
C3005      C3198   1.488       .  S
C3005      C3006   1.417       .  A
C3005      C3010   1.421       .  A
C3006      C3089   1.487       .  S
C3006      C3007   1.416       .  A
C3007      C3166   1.501       .  S
C3007      C3008   1.422       .  A
C3008      C3094   1.486       .  S
C3008      C3009   1.424       .  A
C3009      C3134   1.506       .  S
C3009      C3010   1.418       .  A
C3010      C3085   1.499       .  S
O3011      C3021   1.279       .  A
O3012      C3022   1.282       .  A
O3012     Cu3019   2.026       .  S
O3013      C3023   1.274       .  A
O3013     Cu3019   1.992       .  S
O3014      C3024   1.277       .  A
O3015      C3024   1.277       .  A
O3015     Cu3020   2.009   1_565  S
O3016      C3023   1.279       .  A
O3017      C3022   1.275       .  A
O3018      C3021   1.274       .  A
O3018     Cu3020   1.989   1_565  S
C3021      C3090   1.462       .  S
C3022      C3081   1.478       .  S
C3023      C3238   1.462       .  S
C3024      C3154   1.471       .  S
C3025      C3253   1.481       .  S
C3025      C3026   1.416       .  A
C3025      C3030   1.412       .  A
C3026      C3078   1.497       .  S
C3026      C3027   1.422       .  A
C3027      C3130   1.492       .  S
C3027      C3028   1.419       .  A
C3028      C3073   1.497       .  S
C3028      C3029   1.418       .  A
C3029      C3138   1.487       .  S
C3029      C3030   1.415       .  A
C3030      C3082   1.494       .  S
O3031      C3041   1.275       .  A
O3032      C3042   1.275       .  A
O3032     Cu3039   1.998       .  S
O3033      C3043   1.278       .  A
O3033     Cu3039   2.014       .  S
O3034      C3044   1.281       .  A
O3035      C3044   1.276       .  A
O3035     Cu3040   2.010   1_655  S
O3036      C3043   1.276       .  A
O3037      C3042   1.281       .  A
O3038      C3041   1.279       .  A
O3038     Cu3040   2.025   1_655  S
C3041      C3214   1.468       .  S
C3042      C3149   1.475       .  S
C3043      C3077   1.471       .  S
C3044      C3114   1.476       .  S
O3045      C3055   1.279       .  A
O3046      C3056   1.278       .  A
O3046     Cu3053   2.015       .  S
O3047      C3057   1.276       .  A
O3048      C3058   1.279       .  A
O3048     Cu3053   2.017       .  S
O3049      C3058   1.278       .  A
O3050      C3057   1.279       .  A
O3050     Cu3054   2.012       .  S
O3051      C3056   1.278       .  A
O3052      C3055   1.276       .  A
O3052     Cu3054   2.005       .  S
C3055      C3229   1.473       .  S
C3056      C3210   1.474       .  S
C3057      C3098   1.472       .  S
C3058      C3074   1.482       .  S
O3059      C3069   1.278       .  A
O3060      C3070   1.280       .  A
O3060     Cu3067   2.021       .  S
O3061      C3071   1.274       .  A
O3062      C3072   1.274       .  A
O3062     Cu3067   1.993       .  S
O3063      C3072   1.282       .  A
O3063     Cu3068   2.033       .  S
O3064      C3071   1.279       .  A
O3065      C3070   1.274       .  A
O3065     Cu3068   1.997       .  S
O3066      C3069   1.276       .  A
Cu3067    Cu3068   2.377       .  S
C3069      C3146   1.470       .  S
C3070      C3178   1.470       .  S
C3071      C3110   1.461       .  S
C3072      C3086   1.475       .  S
C3073      C3074   1.347       .  D
C3073      H3075   1.087       .  S
C3074      H3076   1.087       .  S
C3077      C3078   1.345       .  D
C3077      H3079   1.082       .  S
C3078      H3080   1.087       .  S
C3081      C3082   1.341       .  D
C3081      H3083   1.087       .  S
C3082      H3084   1.086       .  S
C3085      C3086   1.341       .  D
C3085      H3087   1.087       .  S
C3086      H3088   1.083       .  S
C3089      C3090   1.338       .  D
C3089      H3091   1.087       .  S
C3090      H3092   1.083       .  S
C3093      C3094   1.343       .  D
C3093      H3095   1.087       .  S
C3094      H3096   1.087       .  S
C3097      C3098   1.342       .  D
C3097      H3099   1.087       .  S
C3098      H3100   1.086       .  S
C3101      C3102   1.347       .  D
C3101      H3103   1.086       .  S
C3102      H3104   1.084       .  S
C3105      C3106   1.340       .  D
C3105      H3107   1.087       .  S
C3106      H3108   1.087       .  S
C3109      C3110   1.336       .  D
C3109      H3111   1.087       .  S
C3110      H3112   1.087       .  S
C3113      C3114   1.340       .  D
C3113      H3115   1.086       .  S
C3114      H3116   1.086       .  S
C3117      C3118   1.339       .  D
C3117      H3119   1.085       .  S
C3118      H3120   1.086       .  S
C3121      C3122   1.337       .  D
C3121      H3123   1.086       .  S
C3122      H3124   1.087       .  S
C3125      C3126   1.347       .  D
C3125      H3127   1.085       .  S
C3126      H3128   1.084       .  S
C3129      C3130   1.341       .  D
C3129      H3131   1.085       .  S
C3130      H3132   1.088       .  S
C3133      C3134   1.346       .  D
C3133      H3135   1.083       .  S
C3134      H3136   1.088       .  S
C3137      C3138   1.339       .  D
C3137      H3139   1.086       .  S
C3138      H3140   1.087       .  S
C3141      C3142   1.342       .  D
C3141      H3143   1.085       .  S
C3142      H3144   1.083       .  S
C3145      C3146   1.344       .  D
C3145      H3147   1.086       .  S
C3146      H3148   1.083       .  S
C3149      C3150   1.340       .  D
C3149      H3151   1.086       .  S
C3150      H3152   1.085       .  S
C3153      C3154   1.344       .  D
C3153      H3155   1.087       .  S
C3154      H3156   1.084       .  S
C3157      C3158   1.339       .  D
C3157      H3159   1.087       .  S
C3158      H3160   1.086       .  S
C3161      C3162   1.339       .  D
C3161      H3163   1.087       .  S
C3162      H3164   1.087       .  S
C3165      C3166   1.347       .  D
C3165      H3167   1.083       .  S
C3166      H3168   1.087       .  S
C3169      C3170   1.340       .  D
C3169      H3171   1.086       .  S
C3170      H3172   1.084       .  S
C3173      C3174   1.340       .  D
C3173      H3175   1.086       .  S
C3174      H3176   1.088       .  S
C3177      C3178   1.342       .  D
C3177      H3179   1.087       .  S
C3178      H3180   1.085       .  S
C3181      C3182   1.339       .  D
C3181      H3183   1.087       .  S
C3182      H3184   1.086       .  S
C3185      C3186   1.345       .  D
C3185      H3187   1.087       .  S
C3186      H3188   1.086       .  S
C3189      C3190   1.339       .  D
C3189      H3191   1.086       .  S
C3190      H3192   1.086       .  S
C3193      C3194   1.346       .  D
C3193      H3195   1.083       .  S
C3194      H3196   1.087       .  S
C3197      C3198   1.341       .  D
C3197      H3199   1.085       .  S
C3198      H3200   1.086       .  S
C3201      C3202   1.342       .  D
C3201      H3203   1.086       .  S
C3202      H3204   1.087       .  S
C3205      C3206   1.339       .  D
C3205      H3207   1.084       .  S
C3206      H3208   1.087       .  S
C3209      C3210   1.341       .  D
C3209      H3211   1.084       .  S
C3210      H3212   1.084       .  S
C3213      C3214   1.342       .  D
C3213      H3215   1.087       .  S
C3214      H3216   1.086       .  S
C3217      C3218   1.338       .  D
C3217      H3219   1.086       .  S
C3218      H3220   1.086       .  S
C3221      C3222   1.340       .  D
C3221      H3223   1.087       .  S
C3222      H3224   1.082       .  S
C3225      C3226   1.336       .  D
C3225      H3227   1.086       .  S
C3226      H3228   1.086       .  S
C3229      C3230   1.343       .  D
C3229      H3231   1.086       .  S
C3230      H3232   1.086       .  S
C3233      C3234   1.341       .  D
C3233      H3235   1.086       .  S
C3234      H3236   1.085       .  S
C3237      C3238   1.333       .  D
C3237      H3239   1.087       .  S
C3238      H3240   1.086       .  S
C3241      C3242   1.342       .  D
C3241      H3243   1.087       .  S
C3242      H3244   1.086       .  S
C3245      C3246   1.345       .  D
C3245      H3247   1.086       .  S
C3246      H3248   1.085       .  S
C3249      C3250   1.346       .  D
C3249      H3251   1.083       .  S
C3250      H3252   1.087       .  S
C3253      C3254   1.332       .  D
C3253      H3255   1.086       .  S
C3254      H3256   1.087       .  S
C3257      C3258   1.342       .  D
C3257      H3259   1.086       .  S
C3258      H3260   1.087       .  S
C3261      C3262   1.350       .  D
C3261      H3263   1.085       .  S
C3262      H3264   1.084       .  S
