geometry optimzed in LAMMPS
_audit_creation_date              2020-11-30 
_audit_creation_method            'lammps2cif' 
_symmetry_space_group_name_H-M    'P1' 
_symmetry_Int_Tables_number       1 
_symmetry_cell_setting            triclinic 
loop_ 
_symmetry_equiv_pos_as_xyz 
  x,y,z 
_cell_length_a                    31.3499688 
_cell_length_b                    32.273004068028406 
_cell_length_c                    26.559483160294 
_cell_angle_alpha                 89.69245331745798 
_cell_angle_beta                  89.93850626878306 
_cell_angle_gamma                 123.11564471848492 
loop_ 
_atom_site_label 
_atom_site_type_symbol 
_atom_site_fract_x 
_atom_site_fract_y 
_atom_site_fract_z 
_atom_site_charge 
O1          O  0.19860493  0.65884437  0.17887980    -0.80900
O2          O  0.26474217  0.87912209  0.23339717    -0.65600
O3          O  0.19743601  0.74374364  0.19534428    -1.12200
C4          C  0.23894938  0.80695646  0.03129657     1.06000
O5          O  0.22815363  0.89804443  0.17413896    -0.78800
O6          O  0.15528474  0.81289902  0.12292015    -0.66400
Ni7        Ni  0.21289588  0.70281944  0.23354699     1.34900
C8          C  0.13346599  0.76801739  0.10898857     0.84700
O9          O  0.20956151  0.79515947  0.28479093    -0.79300
O10         O  0.22753907  0.73838292  0.29578584    -0.89600
C11         C  0.25534349  0.90923409  0.21380481     0.84300
O12         O  0.28228478  0.74314418  0.21367081    -0.67800
O13         O  0.22586705  0.83537333  0.04861667    -0.87100
C14         C  0.31176324  0.78882025  0.22374744     0.85100
C15         C  0.21859339  0.76935831  0.31334307     1.06700
H16         H  0.28688086  0.84551428  0.14461291     0.38500
O17         O  0.25042472  0.82701874  0.14775109    -1.09700
O18         O  0.15786097  0.74700440  0.10536379    -0.66400
Ni19       Ni  0.22339227  0.76123100  0.12701610     1.26300
O20         O  0.29545629  0.81721157  0.23062779    -0.66600
O21         O  0.24883950  0.78157086  0.06004087    -0.78900
C22         C  0.19520964  0.65955845  0.13144727     0.84500
O23         O  0.19994409  0.69564433  0.10694423    -0.66100
Ni24       Ni  0.22647940  0.86294189  0.11368827     1.27400
Ni25       Ni  0.23098598  0.81121573  0.21628093     1.26100
H26         H  0.16104013  0.72875731  0.19619515     0.39100
O27         O  0.18978993  0.65569340  0.68584142    -0.80900
O28         O  0.27248080  0.88229395  0.72578945    -0.65600
O29         O  0.19377577  0.74409993  0.69830623    -1.12200
C30         C  0.23299342  0.79781876  0.52978435     1.06000
O31         O  0.23315935  0.89912015  0.66823579    -0.78800
O32         O  0.15743121  0.81765135  0.61565897    -0.66400
Ni33       Ni  0.20829041  0.70328473  0.73802545     1.34900
C34         C  0.13188282  0.77172884  0.60530083     0.84700
O35         O  0.21619038  0.80404471  0.78414609    -0.79300
O36         O  0.22674249  0.74263698  0.79807282    -0.89600
C37         C  0.26304048  0.91213025  0.70584002     0.84300
O38         O  0.27716902  0.73915273  0.71586535    -0.67800
O39         O  0.22799881  0.83220675  0.54577696    -0.87100
C40         C  0.30942746  0.78506665  0.72260504     0.85100
C41         C  0.22298973  0.77753287  0.81404868     1.06700
H42         H  0.28487284  0.83756769  0.63939461     0.38500
O43         O  0.24881153  0.82256959  0.64439651    -1.09700
O44         O  0.15093384  0.74564975  0.60824119    -0.66400
Ni45       Ni  0.21454308  0.75443315  0.62819307     1.26300
O46         O  0.29622436  0.81603577  0.72714865    -0.66600
O47         O  0.23606238  0.76810132  0.55912741    -0.78900
C48         C  0.17903626  0.65104965  0.63939878     0.84500
O49         O  0.18227251  0.68577694  0.61333979    -0.66100
Ni50       Ni  0.23006841  0.86222058  0.60904801     1.27400
Ni51       Ni  0.23333255  0.81330354  0.71413773     1.26100
H52         H  0.15812390  0.73166314  0.70133604     0.39100
O53         O  0.48382886  0.80257645  0.35075765    -0.80900
O54         O  0.62688452  0.72256254  0.39566750    -0.65600
O55         O  0.57199376  0.80028765  0.36588743    -1.12200
C56         C  0.58480076  0.76082321  0.19865144     1.06000
O57         O  0.68843922  0.76356440  0.33921598    -0.78800
O58         O  0.68717808  0.83492184  0.28547127    -0.66400
Ni59       Ni  0.51741101  0.79332210  0.40612599     1.34900
C60         C  0.66802362  0.86034560  0.27804234     0.84700
O61         O  0.60800697  0.77695811  0.45263176    -0.79300
O62         O  0.54343227  0.78538262  0.46832795    -0.89600
C63         C  0.66949193  0.73467442  0.37714774     0.84300
O64         O  0.47598674  0.72378789  0.39729449    -0.67800
O65         O  0.62586778  0.76620059  0.21486541    -0.87100
C66         C  0.48652501  0.69091751  0.39876159     0.85100
C67         C  0.57963000  0.78142739  0.48281791     1.06700
H68         H  0.56815839  0.71096043  0.30903513     0.38500
O69         O  0.59207048  0.74600512  0.31375766    -1.09700
O70         O  0.62029002  0.84127459  0.27753801    -0.66400
Ni71       Ni  0.55986799  0.77945894  0.29626562     1.26300
O72         O  0.53201404  0.70076833  0.39701056    -0.66600
O73         O  0.55119152  0.75847443  0.22785462    -0.78900
C74         C  0.49099247  0.81187938  0.30389566     0.84500
O75         O  0.52503145  0.81089421  0.27928195    -0.66100
Ni76       Ni  0.65401507  0.76480273  0.27907698     1.27400
Ni77       Ni  0.59876459  0.76079668  0.38324196     1.26100
H78         H  0.59966762  0.83464249  0.36776638     0.39100
O79         O  0.47131622  0.77839993  0.83828319    -0.80900
O80         O  0.62382389  0.71999785  0.89550215    -0.65600
O81         O  0.56663521  0.79546139  0.86662034    -1.12200
C82         C  0.60033980  0.77606221  0.69797114     1.06000
O83         O  0.68957296  0.76635422  0.84476421    -0.78800
O84         O  0.69385752  0.83962663  0.78849778    -0.66400
Ni85       Ni  0.50582353  0.78159440  0.89963875     1.34900
C86         C  0.67626168  0.86686964  0.78594568     0.84700
O87         O  0.59068003  0.76329328  0.95428636    -0.79300
O88         O  0.53329052  0.78345172  0.96485516    -0.89600
C89         C  0.66794164  0.73408967  0.87974874     0.84300
O90         O  0.47033466  0.71142147  0.89940380    -0.67800
O91         O  0.63654218  0.77332708  0.71587674    -0.87100
C92         C  0.48407066  0.68133500  0.89407244     0.85100
C93         C  0.56406723  0.77284105  0.98229603     1.06700
H94         H  0.57241219  0.71664846  0.80282357     0.38500
O95         O  0.59629490  0.75074832  0.81197305    -1.09700
O96         O  0.62885601  0.84993615  0.78839110    -0.66400
Ni97       Ni  0.56603075  0.78640432  0.79535321     1.26300
O98         O  0.52968728  0.69426921  0.88590792    -0.66600
O99         O  0.56723088  0.77686679  0.72494176    -0.78900
C100        C  0.48750388  0.80251492  0.79717060     0.84500
O101        O  0.53205029  0.81928252  0.78078341    -0.66100
Ni102      Ni  0.66002919  0.76961166  0.78190288     1.27400
Ni103      Ni  0.59402423  0.75688224  0.88309857     1.26100
H104        H  0.59249502  0.82947184  0.87431887     0.39100
O105        O  0.21552916  0.51219469  0.98418773    -0.80900
O106        O  0.27221349  0.36615402  0.94020543    -0.65600
O107        O  0.18990983  0.41575850  0.96765635    -1.12200
C108        C  0.21545233  0.39331170  0.13532174     1.06000
O109        O  0.22529333  0.30231128  0.99194942    -0.78800
O110        O  0.14494661  0.30092835  0.03932200    -0.66400
Ni111      Ni  0.19564698  0.46765265  0.92834699     1.34900
C112        C  0.11965675  0.32019504  0.04926642     0.84700
O113        O  0.22246419  0.39302495  0.87948880    -0.79300
O114        O  0.17701944  0.42716703  0.86981128    -0.89600
C115        C  0.26044432  0.32482561  0.95863513     0.84300
O116        O  0.26548677  0.50012593  0.90916619    -0.67800
O117        O  0.20843145  0.35310745  0.11785062    -0.87100
C118        C  0.30095636  0.49485840  0.92302917     0.85100
C119        C  0.19850689  0.40640918  0.85192267     1.06700
H120        H  0.27571739  0.41382372  0.03036663     0.38500
O121        O  0.24003741  0.39204024  0.02212010    -1.09700
O122        O  0.14083781  0.36667506  0.05313031    -0.66400
Ni123      Ni  0.20666722  0.42455257  0.03752713     1.26300
O124        O  0.29294804  0.45709178  0.94723663    -0.66600
O125        O  0.22321448  0.42908361  0.10715836    -0.78900
C126        C  0.19533221  0.50353956  0.02769052     0.84500
O127        O  0.17720484  0.46199391  0.04940563    -0.66100
Ni128      Ni  0.21607798  0.32987743  0.05319122     1.27400
Ni129      Ni  0.23139906  0.39196148  0.95124251     1.26100
H130        H  0.15443882  0.38779090  0.96395047     0.39100
O131        O  0.19304588  0.50756452  0.48791958    -0.80900
O132        O  0.27337196  0.37376105  0.43873855    -0.65600
O133        O  0.18500419  0.41782798  0.46685630    -1.12200
C134        C  0.21610151  0.39756670  0.63572679     1.06000
O135        O  0.23029453  0.31088980  0.49204404    -0.78800
O136        O  0.15068746  0.30205145  0.54587590    -0.66400
Ni137      Ni  0.18733335  0.46958834  0.42957497     1.34900
C138        C  0.12082623  0.31709916  0.54954017     0.84700
O139        O  0.21966951  0.39620173  0.37901134    -0.79300
O140        O  0.18112094  0.43701648  0.36732368    -0.89600
C141        C  0.26357521  0.33297196  0.45732496     0.84300
O142        O  0.25922748  0.50997903  0.42072243    -0.67800
O143        O  0.21796417  0.36176429  0.61845325    -0.87100
C144        C  0.29602003  0.50461200  0.42779299     0.85100
C145        C  0.19936230  0.41285095  0.35067390     1.06700
H146        H  0.27438173  0.42392867  0.52927487     0.38500
O147        O  0.23942911  0.39904116  0.52145667    -1.09700
O148        O  0.13640208  0.36257557  0.54916073    -0.66400
Ni149      Ni  0.19914319  0.42473257  0.53756863     1.26300
O150        O  0.29008558  0.46435668  0.44388388    -0.66600
O151        O  0.21372474  0.42865140  0.60792043    -0.78900
C152        C  0.17098094  0.49354163  0.53055700     0.84500
O153        O  0.16093724  0.45354752  0.55098804    -0.66100
Ni154      Ni  0.22351890  0.33884519  0.55347309     1.27400
Ni155      Ni  0.23012283  0.39752685  0.45036258     1.26100
H156        H  0.15119350  0.38940716  0.46182780     0.39100
O157        O  0.55622640  0.17953465  0.34875075    -0.80900
O158        O  0.40638391  0.25198229  0.39556265    -0.65600
O159        O  0.46716672  0.17915934  0.36623375    -1.12200
C160        C  0.44557592  0.20871879  0.19751377     1.06000
O161        O  0.34639269  0.21434988  0.33713839    -0.78800
O162        O  0.34690677  0.13752992  0.29112898    -0.66400
Ni163      Ni  0.52663993  0.19443122  0.40348692     1.34900
C164        C  0.36654702  0.11241984  0.28344319     0.84700
O165        O  0.43157722  0.20122662  0.45295954    -0.79300
O166        O  0.50593628  0.20966006  0.46530267    -0.89600
C167        C  0.36577294  0.24307713  0.37478101     0.84300
O168        O  0.56302498  0.26193039  0.38339865    -0.67800
O169        O  0.40390376  0.20114738  0.21461961    -0.87100
C170        C  0.54954698  0.29235985  0.38857994     0.85100
C171        C  0.46647083  0.20689381  0.48186485     1.06700
H172        H  0.46447812  0.26382255  0.30604790     0.38500
O173        O  0.44147010  0.22876999  0.31241430    -1.09700
O174        O  0.41455485  0.13240987  0.28102310    -0.66400
Ni175      Ni  0.47513850  0.19649172  0.29544260     1.26300
O176        O  0.50291251  0.27876400  0.39324483    -0.66600
O177        O  0.48112441  0.21484117  0.22609384    -0.78900
C178        C  0.54718019  0.16776738  0.30267511     0.84500
O179        O  0.51170297  0.16676057  0.27877186    -0.66100
Ni180      Ni  0.37853208  0.20718786  0.27846269     1.27400
Ni181      Ni  0.43740518  0.21603794  0.38284562     1.26100
H182        H  0.44164950  0.14435568  0.37086465     0.39100
O183        O  0.56054150  0.18299790  0.84397379    -0.80900
O184        O  0.40959147  0.25125899  0.89734321    -0.65600
O185        O  0.47194152  0.18089471  0.86453728    -1.12200
C186        C  0.44311489  0.21145845  0.69810286     1.06000
O187        O  0.34517078  0.20426093  0.84643859    -0.78800
O188        O  0.34946712  0.13519267  0.79153955    -0.66400
Ni189      Ni  0.53169561  0.19572595  0.90071299     1.34900
C190        C  0.37094815  0.11218844  0.78231024     0.84700
O191        O  0.43825454  0.20268868  0.95318951    -0.79300
O192        O  0.51169030  0.20896219  0.96425627    -0.89600
C193        C  0.36535897  0.23626217  0.88130205     0.84300
O194        O  0.56743023  0.26345053  0.88286071    -0.67800
O195        O  0.40192875  0.20375501  0.71713502    -0.87100
C196        C  0.55359237  0.29362876  0.88700160     0.85100
C197        C  0.47280384  0.20687123  0.98149396     1.06700
H198        H  0.46354032  0.26339347  0.80656508     0.38500
O199        O  0.44207874  0.22827234  0.81333887    -1.09700
O200        O  0.41904388  0.13360969  0.77982072    -0.66400
Ni201      Ni  0.47763873  0.19875160  0.79369918     1.26300
O202        O  0.50687422  0.27992398  0.89141592    -0.66600
O203        O  0.47962093  0.21678736  0.72477309    -0.78900
C204        C  0.55229845  0.17304945  0.79741427     0.84500
O205        O  0.51688497  0.17246776  0.77389076    -0.66100
Ni206      Ni  0.37689827  0.20429399  0.78354639     1.27400
Ni207      Ni  0.44151828  0.21660143  0.88325088     1.26100
H208        H  0.44673118  0.14598458  0.86899520     0.39100
O209        O  0.83930024  0.31554747  0.17531752    -0.80900
O210        O  0.76690136  0.09418649  0.23093792    -0.65600
O211        O  0.84055103  0.23055614  0.19486550    -1.12200
C212        C  0.80527792  0.17073975  0.02928915     1.06000
O213        O  0.80647199  0.07604617  0.17471472    -0.78800
O214        O  0.88220411  0.15808122  0.12238548    -0.66400
Ni215      Ni  0.82639600  0.27297100  0.23172375     1.34900
C216        C  0.90611967  0.20360387  0.11005934     0.84700
O217        O  0.82127028  0.17527802  0.28457201    -0.79300
O218        O  0.81333680  0.23876706  0.29540260    -0.89600
C219        C  0.77649762  0.06410289  0.21237800     0.84300
O220        O  0.75628142  0.23432758  0.21486466    -0.67800
O221        O  0.81402410  0.13936206  0.04745722    -0.87100
C222        C  0.72546108  0.18829878  0.22263226     0.85100
C223        C  0.81699567  0.20419820  0.31303043     1.06700
H224        H  0.75169301  0.13219429  0.14098452     0.38500
O225        O  0.78781652  0.14902655  0.14567648    -1.09700
O226        O  0.88391686  0.22684802  0.10747218    -0.66400
Ni227      Ni  0.81887889  0.21570349  0.12531320     1.26300
O228        O  0.73991357  0.15822135  0.22718611    -0.66600
O229        O  0.79729717  0.19790078  0.05720616    -0.78900
C230        C  0.84813854  0.31722963  0.12855242     0.84500
O231        O  0.84736093  0.28263153  0.10532982    -0.66100
Ni232      Ni  0.81041953  0.11109170  0.11326926     1.27400
Ni233      Ni  0.80366657  0.16238376  0.21506167     1.26100
H234        H  0.87651203  0.24400063  0.19744392     0.39100
O235        O  0.84606149  0.31957555  0.67507377    -0.80900
O236        O  0.77608670  0.09977712  0.73448598    -0.65600
O237        O  0.84809159  0.23528949  0.69485699    -1.12200
C238        C  0.80573511  0.17199633  0.53025756     1.06000
O239        O  0.80962314  0.07783896  0.67520428    -0.78800
O240        O  0.88394875  0.15778794  0.62076146    -0.66400
Ni241      Ni  0.83329949  0.27725688  0.73163378     1.34900
C242        C  0.90908684  0.20326763  0.60832093     0.84700
O243        O  0.83325982  0.18274357  0.78469315    -0.79300
O244        O  0.82069573  0.24324902  0.79537397    -0.89600
C245        C  0.78389454  0.06853441  0.71572221     0.84300
O246        O  0.76296516  0.23776221  0.71500600    -0.67800
O247        O  0.81317028  0.13956798  0.54801612    -0.87100
C248        C  0.73300919  0.19227727  0.72613188     0.85100
C249        C  0.82684779  0.21027830  0.81316996     1.06700
H250        H  0.75651419  0.13697532  0.64445554     0.38500
O251        O  0.79277706  0.15288151  0.64757752    -1.09700
O252        O  0.88899129  0.22853992  0.60652581    -0.66400
Ni253      Ni  0.82510097  0.21976857  0.62592159     1.26300
O254        O  0.74843351  0.16309521  0.73178259    -0.66600
O255        O  0.80162841  0.20157102  0.55833420    -0.78900
C256        C  0.85626253  0.32195856  0.62855565     0.84500
O257        O  0.85525582  0.28711672  0.60539279    -0.66100
Ni258      Ni  0.81173194  0.11244135  0.61406378     1.27400
Ni259      Ni  0.81196601  0.16758963  0.71635226     1.26100
H260        H  0.88415426  0.24916194  0.69675377     0.39100
O261        O  0.82816320  0.46709857  0.98066576    -0.80900
O262        O  0.76375248  0.60997508  0.94453402    -0.65600
O263        O  0.84873160  0.56240832  0.96715979    -1.12200
C264        C  0.82249492  0.57984259  0.13557252     1.06000
O265        O  0.81334002  0.67415795  0.99386567    -0.78800
O266        O  0.89344620  0.67538334  0.04143436    -0.66400
Ni267      Ni  0.84504164  0.51304602  0.92633579     1.34900
C268        C  0.91915037  0.65634110  0.05033763     0.84700
O269        O  0.81305219  0.58605937  0.88083660    -0.79300
O270        O  0.86124056  0.55520691  0.86914327    -0.89600
C271        C  0.77742773  0.65211784  0.96165733     0.84300
O272        O  0.77456322  0.47865504  0.91016992    -0.67800
O273        O  0.82846659  0.61992405  0.11845067    -0.87100
C274        C  0.73756023  0.48139186  0.92470916     0.85100
C275        C  0.83834909  0.57513142  0.85250830     1.06700
H276        H  0.76269552  0.56091766  0.03294492     0.38500
O277        O  0.79806696  0.58319171  0.02381248    -1.09700
O278        O  0.89841012  0.60972996  0.05246159    -0.66400
Ni279      Ni  0.83291081  0.55149972  0.03723746     1.26300
O280        O  0.74403036  0.51851371  0.94883369    -0.66600
O281        O  0.81687207  0.54527555  0.10725697    -0.78900
C282        C  0.84922748  0.47497808  0.02337969     0.84500
O283        O  0.86412511  0.51486628  0.04702950    -0.66100
Ni284      Ni  0.82179086  0.64504892  0.05468463     1.27400
Ni285      Ni  0.80526129  0.58472822  0.95288906     1.26100
H286        H  0.88322452  0.59082945  0.96324280     0.39100
O287        O  0.82872897  0.46758457  0.48589137    -0.80900
O288        O  0.76062312  0.60554592  0.44331096    -0.65600
O289        O  0.84856707  0.56129827  0.46634847    -1.12200
C290        C  0.82615324  0.58491196  0.63558721     1.06000
O291        O  0.81026370  0.67115862  0.49070534    -0.78800
O292        O  0.89117415  0.67822141  0.54162187    -0.66400
Ni293      Ni  0.84310977  0.50937721  0.42843498     1.34900
C294        C  0.91932092  0.66140637  0.54742798     0.84700
O295        O  0.81023969  0.58084370  0.38008254    -0.79300
O296        O  0.85656778  0.54761092  0.36867505    -0.89600
C297        C  0.77363214  0.64774652  0.45960384     0.84300
O298        O  0.77210069  0.47358994  0.41402933    -0.67800
O299        O  0.82659939  0.62205389  0.61768006    -0.87100
C300        C  0.73565952  0.47752754  0.42768153     0.85100
C301        C  0.83425404  0.56809593  0.35195891     1.06700
H302        H  0.76384682  0.55930552  0.53359191     0.38500
O303        O  0.79865312  0.58273549  0.52345884    -1.09700
O304        O  0.90173713  0.61527774  0.54775456    -0.66400
Ni305      Ni  0.83680429  0.55436839  0.53728534     1.26300
O306        O  0.74285046  0.51548489  0.45054355    -0.66600
O307        O  0.82455850  0.55162217  0.60811495    -0.78900
C308        C  0.85543550  0.47923749  0.52543666     0.84500
O309        O  0.87100883  0.52028144  0.54720212    -0.66100
Ni310      Ni  0.81902546  0.64452649  0.55288203     1.27400
Ni311      Ni  0.80374117  0.58191909  0.45218099     1.26100
H312        H  0.88269714  0.58962799  0.46013603     0.39100
C313        C  0.84991263  0.55394023  0.76658134    -0.12300
C314        C  0.83818553  0.58170096  0.79728028     0.04700
C315        C  0.82239323  0.61069808  0.77425694    -0.07500
C316        C  0.81816152  0.61070064  0.72173772    -0.08300
C317        C  0.82893349  0.58192206  0.69115882    -0.02800
C318        C  0.84524597  0.55356051  0.71444059     0.04000
N319        N  0.85899442  0.52521338  0.68596946     0.66500
H320        H  0.86174002  0.53099127  0.78306274     0.15400
H321        H  0.80615565  0.63337130  0.70492528     0.15100
N322        N  0.81107816  0.64076228  0.80326159     0.74200
O323        O  0.90527108  0.53939223  0.68376347    -0.39300
O324        O  0.82509414  0.48105629  0.67515564    -0.39200
O325        O  0.84491701  0.68603704  0.80895851    -0.39900
O326        O  0.76533678  0.62501910  0.81367627    -0.40000
C327        C  0.82095207  0.60890946  0.22181788    -0.12300
C328        C  0.82391924  0.57510484  0.19104568     0.04700
C329        C  0.83181389  0.54029528  0.21409425    -0.07500
C330        C  0.83618115  0.53976442  0.26630434    -0.08300
C331        C  0.83325080  0.57349234  0.29684686    -0.02800
C332        C  0.82589230  0.60861851  0.27410462     0.04000
N333        N  0.82593727  0.64579890  0.30313958     0.66500
H334        H  0.81571192  0.63658519  0.20528343     0.15400
H335        H  0.84149636  0.51218154  0.28301590     0.15100
N336        N  0.83865577  0.50710080  0.18532022     0.74200
O337        O  0.86762115  0.68579532  0.31217918    -0.39300
O338        O  0.78461394  0.64265728  0.31137341    -0.39200
O339        O  0.88268303  0.51509525  0.18191932    -0.39900
O340        O  0.80050391  0.46471183  0.17508425    -0.40000
C341        C  0.88356397  0.44948880  0.59712100    -0.12300
C342        C  0.86418475  0.44217085  0.54821854     0.04700
C343        C  0.85009822  0.39761065  0.52340241    -0.07500
C344        C  0.85141435  0.36039764  0.54925123    -0.08300
C345        C  0.86596364  0.36597715  0.59992230    -0.02800
C346        C  0.88366705  0.41185191  0.62346218     0.04000
N347        N  0.90063689  0.42058445  0.67452629     0.66500
H348        H  0.89688791  0.48398969  0.61586077     0.15400
H349        H  0.83824981  0.32584982  0.53017771     0.15100
N350        N  0.83331898  0.38883691  0.47227837     0.74200
O351        O  0.94777971  0.44556663  0.68347882    -0.39300
O352        O  0.86981460  0.41375998  0.70919009    -0.39200
O353        O  0.86564082  0.40307444  0.43716983    -0.39900
O354        O  0.78663424  0.35942991  0.46272692    -0.40000
C355        C  0.83075697  0.35018408  0.05278905    -0.12300
C356        C  0.85533680  0.35968232  0.09930095     0.04700
C357        C  0.88093004  0.40806953  0.11884977    -0.07500
C358        C  0.88122724  0.44559787  0.09178141    -0.08300
C359        C  0.85361658  0.43548313  0.04695603    -0.02800
C360        C  0.82881406  0.38698633  0.02697273     0.04000
N361        N  0.79924896  0.37343135  0.98194233     0.66500
H362        H  0.81026466  0.31305610  0.03761168     0.15400
H363        H  0.90207692  0.48266207  0.10674132     0.15100
N364        N  0.90586754  0.41960719  0.16655300     0.74200
O365        O  0.82089298  0.38065654  0.93976859    -0.39300
O366        O  0.75131899  0.34586713  0.98475053    -0.39200
O367        O  0.95385855  0.44624350  0.16815059    -0.39900
O368        O  0.88057509  0.41345358  0.20606220    -0.40000
C369        C  0.81795641  0.15828792  0.88760811    -0.12300
C370        C  0.82300560  0.20154995  0.86874500     0.04700
C371        C  0.82037150  0.23344002  0.90322434    -0.07500
C372        C  0.81285099  0.22163505  0.95462883    -0.08300
C373        C  0.80810482  0.17854592  0.97359136    -0.02800
C374        C  0.81059973  0.14655868  0.93911530     0.04000
N375        N  0.80522043  0.10163546  0.95533384     0.66500
H376        H  0.81888551  0.13266293  0.86214659     0.15400
H377        H  0.81190784  0.24731333  0.97998623     0.15100
N378        N  0.82584504  0.27843109  0.88708452     0.74200
O379        O  0.76166357  0.06200141  0.95557036    -0.39300
O380        O  0.84422038  0.09962523  0.95839511    -0.39200
O381        O  0.78666465  0.27965239  0.88066629    -0.39900
O382        O  0.86895638  0.31845700  0.88925790    -0.40000
C383        C  0.80006252  0.14981530  0.38812433    -0.12300
C384        C  0.81427134  0.19634914  0.36871296     0.04700
C385        C  0.82380896  0.23383564  0.40307689    -0.07500
C386        C  0.81942313  0.22443365  0.45499869    -0.08300
C387        C  0.80541066  0.17805667  0.47450237    -0.02800
C388        C  0.79525975  0.14029885  0.44021158     0.04000
N389        N  0.77804185  0.09148656  0.45731739     0.66500
H390        H  0.79145729  0.12007360  0.36269253     0.15400
H391        H  0.82829583  0.25433395  0.48027966     0.15100
N392        N  0.83954414  0.28232430  0.38620163     0.74200
O393        O  0.73098485  0.06048822  0.46386613    -0.39300
O394        O  0.80772809  0.07655102  0.45511542    -0.39200
O395        O  0.80678247  0.29323263  0.38107678    -0.39900
O396        O  0.88622134  0.31638018  0.38651638    -0.40000
C397        C  0.61012860  0.14352339  0.79810053    -0.12300
C398        C  0.58805067  0.16416803  0.77049608     0.04700
C399        C  0.60861949  0.18511488  0.72273609    -0.07500
C400        C  0.65425193  0.19063825  0.70680327    -0.08300
C401        C  0.67927099  0.17461072  0.73725647    -0.02800
C402        C  0.65550867  0.14896505  0.78247071     0.04000
N403        N  0.68038535  0.13504450  0.81711341     0.66500
H404        H  0.59474470  0.12718993  0.83479573     0.15400
H405        H  0.67167189  0.20998566  0.67174996     0.15100
N406        N  0.58636622  0.20486313  0.69204247     0.74200
O407        O  0.71665501  0.16845291  0.84271193    -0.39300
O408        O  0.65632314  0.09126145  0.83379700    -0.39200
O409        O  0.60761232  0.25111322  0.68861798    -0.39900
O410        O  0.55214825  0.17706361  0.66103302    -0.40000
C411        C  0.59682073  0.37559582  0.92997892    -0.12300
C412        C  0.59510741  0.34662978  0.88962017     0.04700
C413        C  0.63816954  0.36569834  0.85806751    -0.07500
C414        C  0.68217906  0.41156684  0.86832391    -0.08300
C415        C  0.68586765  0.43880598  0.91110335    -0.02800
C416        C  0.64200738  0.42119252  0.94135399     0.04000
N417        N  0.64411197  0.44621601  0.98639391     0.66500
H418        H  0.56447802  0.36089533  0.95529317     0.15400
H419        H  0.71494340  0.42456737  0.84392988     0.15100
N420        N  0.63916005  0.33741281  0.81731179     0.74200
O421        O  0.62772452  0.47426577  0.98618028    -0.39300
O422        O  0.65288983  0.43302832  0.02784826    -0.39200
O423        O  0.63318496  0.34733609  0.77289665    -0.39900
O424        O  0.65775767  0.31165151  0.82430530    -0.40000
C425        C  0.60392511  0.18643869  0.22958492    -0.12300
C426        C  0.58320364  0.16011321  0.27477389     0.04700
C427        C  0.60415457  0.13499905  0.29630356    -0.07500
C428        C  0.64745995  0.13975054  0.27465961    -0.08300
C429        C  0.67167763  0.17085664  0.23284048    -0.02800
C430        C  0.64831578  0.19277491  0.20902931     0.04000
N431        N  0.67104842  0.22432838  0.16599087     0.66500
H432        H  0.58834819  0.20599981  0.21255216     0.15400
H433        H  0.66487179  0.12275678  0.29355916     0.15100
N434        N  0.58366629  0.10679700  0.34167606     0.74200
O435        O  0.65671029  0.20648932  0.12252762    -0.39300
O436        O  0.69626381  0.27066133  0.17148845    -0.39200
O437        O  0.55318324  0.06049339  0.33910630    -0.39900
O438        O  0.60447915  0.12603156  0.38317963    -0.40000
C439        C  0.59471819  0.37306894  0.43456799    -0.12300
C440        C  0.59116538  0.34535200  0.39210678     0.04700
C441        C  0.63284970  0.36531612  0.35868688    -0.07500
C442        C  0.67815489  0.40988931  0.36987745    -0.08300
C443        C  0.68358673  0.43563798  0.41440566    -0.02800
C444        C  0.64065835  0.41802929  0.44597622     0.04000
N445        N  0.64442433  0.44283391  0.49177410     0.66500
H446        H  0.56319639  0.35794604  0.46096939     0.15400
H447        H  0.71013559  0.42353024  0.34423881     0.15100
N448        N  0.63040099  0.33954841  0.31405382     0.74200
O449        O  0.63095854  0.47319488  0.49289844    -0.39300
O450        O  0.66553771  0.43794483  0.52972154    -0.39200
O451        O  0.61446707  0.34726954  0.27375084    -0.39900
O452        O  0.65269875  0.31676509  0.31261497    -0.40000
C453        C  0.41257441  0.19006959  0.55790230    -0.12300
C454        C  0.46127450  0.21063330  0.53693186     0.04700
C455        C  0.50398702  0.23412080  0.56917720    -0.07500
C456        C  0.49712594  0.23500734  0.62110074    -0.08300
C457        C  0.44834406  0.21294355  0.64237240    -0.02800
C458        C  0.40569686  0.19091010  0.60989544     0.04000
N459        N  0.35489468  0.16741324  0.62892813     0.66500
H460        H  0.37927884  0.17206568  0.53394328     0.15400
H461        H  0.53045781  0.25328353  0.64492609     0.15100
N462        N  0.55479357  0.25857790  0.54988005     0.74200
O463        O  0.33310777  0.19070168  0.62851004    -0.39300
O464        O  0.32863753  0.12113196  0.63539858    -0.39200
O465        O  0.57935923  0.30452227  0.54128356    -0.39900
O466        O  0.57818775  0.23686056  0.55143644    -0.40000
C467        C  0.41812806  0.18835007  0.05691317    -0.12300
C468        C  0.46713084  0.20905845  0.03671707     0.04700
C469        C  0.50924352  0.23132547  0.06971704    -0.07500
C470        C  0.50141949  0.23072900  0.12174626    -0.08300
C471        C  0.45224371  0.20932729  0.14203240    -0.02800
C472        C  0.41029777  0.18841820  0.10870020     0.04000
N473        N  0.35918856  0.16592138  0.12658514     0.66500
H474        H  0.38525502  0.17123769  0.03238337     0.15400
H475        H  0.53427020  0.24795651  0.14629889     0.15100
N476        N  0.56033352  0.25691224  0.05101765     0.74200
O477        O  0.33849097  0.19022103  0.12551527    -0.39300
O478        O  0.33199591  0.11974183  0.13372410    -0.39200
O479        O  0.58340052  0.30253160  0.04104192    -0.39900
O480        O  0.58528706  0.23684774  0.05427499    -0.40000
C481        C  0.04846040  0.24385252  0.59421026    -0.12300
C482        C  0.06549486  0.28139419  0.55762167     0.04700
C483        C  0.02996468  0.28989524  0.53569949    -0.07500
C484        C  0.97958643  0.26362285  0.55274923    -0.08300
C485        C  0.96289285  0.22801090  0.59130856    -0.02800
C486        C  0.99751360  0.21703559  0.61106667     0.04000
N487        N  0.98269611  0.18153320  0.65066895     0.66500
H488        H  0.07540839  0.23732405  0.61195530     0.15400
H489        H  0.95323826  0.27129749  0.53553582     0.15100
N490        N  0.04448741  0.32515672  0.49582359     0.74200
O491        O  0.97261124  0.13892349  0.64058211    -0.39300
O492        O  0.98980566  0.19566239  0.69583791    -0.39200
O493        O  0.04056305  0.31127032  0.45079169    -0.39900
O494        O  0.05076473  0.36648232  0.50489474    -0.40000
C495        C  0.30494214  0.31724660  0.38605440    -0.12300
C496        C  0.28937749  0.30929299  0.43670799     0.04700
C497        C  0.29919401  0.27904506  0.46688064    -0.07500
C498        C  0.32455773  0.25819837  0.44629821    -0.08300
C499        C  0.33928499  0.26566102  0.39555877    -0.02800
C500        C  0.32909124  0.29530830  0.36526768     0.04000
N501        N  0.34478243  0.30501615  0.31371212     0.66500
H502        H  0.29788537  0.34023677  0.36221447     0.15400
H503        H  0.33237815  0.23566915  0.47000413     0.15100
N504        N  0.28498433  0.27016302  0.51887173     0.74200
O505        O  0.31311741  0.27974939  0.27969965    -0.39300
O506        O  0.38615915  0.34451008  0.30201057    -0.39200
O507        O  0.24636310  0.22904566  0.53229554    -0.39900
O508        O  0.31623185  0.29865631  0.55170855    -0.40000
C509        C  0.18116625  0.41452581  0.71074552    -0.12300
C510        C  0.21325059  0.40095332  0.69093887     0.04700
C511        C  0.23815643  0.38673769  0.72423271    -0.07500
C512        C  0.23095713  0.38676505  0.77618078    -0.08300
C513        C  0.19926166  0.40089665  0.79638532    -0.02800
C514        C  0.17374142  0.41444336  0.76270717     0.04000
N515        N  0.13987682  0.42798636  0.78019903     0.66500
H516        H  0.16078808  0.42439894  0.68563520     0.15400
H517        H  0.25173853  0.37699078  0.80078229     0.15100
N518        N  0.27286376  0.37446261  0.70616769     0.74200
O519        O  0.15678410  0.47298755  0.78773253    -0.39300
O520        O  0.09243069  0.39725902  0.77703021    -0.39200
O521        O  0.31973425  0.40777338  0.70362116    -0.39900
O522        O  0.25878626  0.32965388  0.70420487    -0.40000
C523        C  0.21066422  0.37181210  0.27728477    -0.12300
C524        C  0.19908971  0.40543653  0.29535812     0.04700
C525        C  0.19220552  0.43434836  0.25997640    -0.07500
C526        C  0.19915718  0.43058654  0.20855016    -0.08300
C527        C  0.21141882  0.39746805  0.19060366    -0.02800
C528        C  0.21632956  0.36721803  0.22572581     0.04000
N529        N  0.22816926  0.33230748  0.21007138     0.66500
H530        H  0.21596495  0.34905997  0.30336657     0.15400
H531        H  0.19365401  0.45313836  0.18236555     0.15100
N532        N  0.17817011  0.46781804  0.27516115     0.74200
O533        O  0.27409726  0.34532657  0.20779372    -0.39300
O534        O  0.19336499  0.28688459  0.20925756    -0.39200
O535        O  0.20953185  0.51377417  0.26967068    -0.39900
O536        O  0.13176839  0.45150188  0.28247310    -0.40000
C537        C  0.04288742  0.24040087  0.08049655    -0.12300
C538        C  0.06401297  0.28821281  0.06027131     0.04700
C539        C  0.03264470  0.30704928  0.05670411    -0.07500
C540        C  0.98239547  0.27897567  0.07386796    -0.08300
C541        C  0.96107959  0.23146470  0.09490042    -0.02800
C542        C  0.99205714  0.21204624  0.09777646     0.04000
N543        N  0.97325634  0.16433516  0.11917395     0.66500
H544        H  0.06638587  0.22546137  0.08448227     0.15400
H545        H  0.95983552  0.29494929  0.07005593     0.15100
N546        N  0.05087079  0.35473466  0.03537578     0.74200
O547        O  0.95456222  0.12719345  0.09078178    -0.39300
O548        O  0.98497424  0.16101336  0.16377563    -0.39200
O549        O  0.04389328  0.35824836  0.98918508    -0.39900
O550        O  0.06230228  0.39033464  0.06415287    -0.40000
C551        C  0.25932877  0.25135757  0.92779434    -0.12300
C552        C  0.28713442  0.30182680  0.93964906     0.04700
C553        C  0.34057486  0.32987923  0.93349638    -0.07500
C554        C  0.36512005  0.30718254  0.91623733    -0.08300
C555        C  0.33736233  0.25700296  0.90310770    -0.02800
C556        C  0.28379922  0.22899644  0.90880067     0.04000
N557        N  0.25376644  0.17768271  0.89642287     0.66500
H558        H  0.21829549  0.22937297  0.93240155     0.15400
H559        H  0.40617069  0.32942333  0.91171444     0.15100
N560        N  0.37067996  0.38131121  0.94560483     0.74200
O561        O  0.24423221  0.14582543  0.92992203    -0.39300
O562        O  0.22841049  0.16427606  0.85618312    -0.39200
O563        O  0.39465691  0.39476357  0.98664800    -0.39900
O564        O  0.38184414  0.41306427  0.91145795    -0.40000
C565        C  0.69683165  0.95227038  0.79341604    -0.12300
C566        C  0.71143912  0.92070064  0.77672372     0.04700
C567        C  0.75480446  0.94024847  0.74523154    -0.07500
C568        C  0.77956301  0.98927372  0.72776832    -0.08300
C569        C  0.76221107  0.01971969  0.74126458    -0.02800
C570        C  0.72155562  0.00110144  0.77624380     0.04000
N571        N  0.70210018  0.02982726  0.79213980     0.66500
H572        H  0.66406596  0.93819903  0.81807160     0.15400
H573        H  0.81121309  0.00279615  0.70176359     0.15100
N574        N  0.77176383  0.90993416  0.72721410     0.74200
O575        O  0.66623054  0.02732554  0.76777578    -0.39300
O576        O  0.71194094  0.04751574  0.83596811    -0.39200
O577        O  0.81140497  0.91489338  0.74556063    -0.39900
O578        O  0.75390403  0.88642652  0.68670823    -0.40000
C579        C  0.74837938  0.74466682  0.91074613    -0.12300
C580        C  0.69552793  0.71381790  0.90343257     0.04700
C581        C  0.67006933  0.66348259  0.91740865    -0.07500
C582        C  0.69777194  0.64458672  0.93620602    -0.08300
C583        C  0.75060004  0.67519837  0.94319095    -0.02800
C584        C  0.77585184  0.72601018  0.93142439     0.04000
N585        N  0.82944360  0.75877241  0.93863399     0.66500
H586        H  0.76842648  0.78351860  0.90061020     0.15400
H587        H  0.67767099  0.60556350  0.94569325     0.15100
N588        N  0.61631511  0.63058988  0.91121365     0.74200
O589        O  0.85944034  0.76823990  0.90226391    -0.39300
O590        O  0.84560056  0.78560864  0.97729297    -0.39200
O591        O  0.59930961  0.60336942  0.87287445    -0.39900
O592        O  0.58719075  0.62125555  0.94834498    -0.40000
C593        C  0.41036404  0.60640204  0.85797726    -0.12300
C594        C  0.44418536  0.62869118  0.89805023     0.04700
C595        C  0.43444380  0.60291131  0.94400959    -0.07500
C596        C  0.38920437  0.55640636  0.95026560    -0.08300
C597        C  0.35332250  0.53586691  0.91142335    -0.02800
C598        C  0.36521389  0.56009904  0.86417188     0.04000
N599        N  0.33094941  0.53880627  0.82267670     0.66500
H600        H  0.41787224  0.62607688  0.82251002     0.15400
H601        H  0.38026632  0.53832766  0.98679552     0.15100
N602        N  0.46759600  0.62554183  0.98605128     0.74200
O603        O  0.30438010  0.55563967  0.81016807    -0.39300
O604        O  0.33493262  0.51076043  0.79287872    -0.39200
O605        O  0.45889529  0.64931726  0.01741564    -0.39900
O606        O  0.49853360  0.61349037  0.99716683    -0.40000
C607        C  0.77347276  0.98582064  0.22656177    -0.12300
C608        C  0.75237245  0.01402448  0.23520347     0.04700
C609        C  0.70634474  0.99243763  0.26287911    -0.07500
C610        C  0.68167718  0.94337689  0.27914169    -0.08300
C611        C  0.70110652  0.91425348  0.26800816    -0.02800
C612        C  0.74834396  0.93633374  0.24263585     0.04000
N613        N  0.76950823  0.90826086  0.22957310     0.66500
H614        H  0.80882022  0.00166649  0.20565604     0.15400
H615        H  0.64558753  0.92728319  0.29878647     0.15100
N616        N  0.68164384  0.01819717  0.27125536     0.74200
O617        O  0.75674955  0.88453490  0.18883123    -0.39300
O618        O  0.80747955  0.91477137  0.25341757    -0.39200
O619        O  0.64923567  0.01394871  0.23995716    -0.39900
O620        O  0.68446896  0.03654126  0.31391429    -0.40000
C621        C  0.66924380  0.66507745  0.41660602    -0.12300
C622        C  0.69731680  0.71440344  0.40002000     0.04700
C623        C  0.75089108  0.74241465  0.40464139    -0.07500
C624        C  0.77524408  0.72055034  0.42529891    -0.08300
C625        C  0.74708891  0.67072319  0.44038730    -0.02800
C626        C  0.69357257  0.64301783  0.43623340     0.04000
N627        N  0.66321850  0.59284531  0.45335524     0.66500
H628        H  0.62807769  0.64317829  0.41361970     0.15400
H629        H  0.81636889  0.74229866  0.42860475     0.15100
N630        N  0.78091472  0.79335504  0.38999054     0.74200
O631        O  0.64957632  0.58386690  0.49893611    -0.39300
O632        O  0.64180267  0.55839675  0.42163714    -0.39200
O633        O  0.79536224  0.82632178  0.42304506    -0.39900
O634        O  0.80132971  0.80510052  0.34689359    -0.40000
C635        C  0.38951350  0.56029739  0.44653218    -0.12300
C636        C  0.34776842  0.54810501  0.41590613     0.04700
C637        C  0.35497544  0.58042161  0.37585622    -0.07500
C638        C  0.40163461  0.62521928  0.36947773    -0.08300
C639        C  0.44237673  0.63906590  0.40189718    -0.02800
C640        C  0.43660563  0.60562429  0.44001928     0.04000
N641        N  0.47627501  0.61891398  0.47530699     0.66500
H642        H  0.38474468  0.53609381  0.47750161     0.15400
H643        H  0.40561553  0.65015197  0.33958751     0.15100
N644        N  0.31516765  0.56826513  0.34099888     0.74200
O645        O  0.47835350  0.64151025  0.51480034    -0.39300
O646        O  0.50005760  0.59760426  0.47342122    -0.39200
O647        O  0.29198861  0.59014937  0.34362360    -0.39900
O648        O  0.31126957  0.54458581  0.30176660    -0.40000
C649        C  0.57737600  0.80979441  0.56861063    -0.12300
C650        C  0.58816645  0.78162413  0.53747743     0.04700
C651        C  0.60489045  0.75294662  0.55951530    -0.07500
C652        C  0.60875776  0.75169603  0.61189306    -0.08300
C653        C  0.59710640  0.77922475  0.64291216    -0.02800
C654        C  0.58276682  0.80971746  0.62080304     0.04000
N655        N  0.57710934  0.84337361  0.65041403     0.66500
H656        H  0.56600678  0.83314052  0.55219220     0.15400
H657        H  0.62024054  0.72848571  0.62842473     0.15100
N658        N  0.61613633  0.72332990  0.52964492     0.74200
O659        O  0.61626698  0.88177206  0.66748624    -0.39300
O660        O  0.53511209  0.84007731  0.65095641    -0.39200
O661        O  0.66170026  0.74030271  0.51722276    -0.39900
O662        O  0.58385222  0.67738539  0.52703759    -0.40000
C663        C  0.54149995  0.76951985  0.12436816    -0.12300
C664        C  0.57749285  0.76037670  0.14323807     0.04700
C665        C  0.60823310  0.75472504  0.10855864    -0.07500
C666        C  0.60365074  0.75983487  0.05691618    -0.08300
C667        C  0.56835610  0.76988769  0.03793285    -0.02800
C668        C  0.53638666  0.77396040  0.07256314     0.04000
N669        N  0.49791820  0.78183935  0.05616836     0.66500
H670        H  0.51732251  0.77390844  0.14997174     0.15400
H671        H  0.62792845  0.75537121  0.03153404     0.15100
N672        N  0.64372752  0.74274078  0.12475256     0.74200
O673        O  0.45378585  0.74505102  0.04695025    -0.39300
O674        O  0.50487809  0.82398805  0.06103042    -0.39200
O675        O  0.63030647  0.69807688  0.12562697    -0.39900
O676        O  0.69041964  0.77648054  0.12729622    -0.40000
C677        C  0.04677569  0.76281833  0.60277944    -0.12300
C678        C  0.07851317  0.74717527  0.58672713     0.04700
C679        C  0.05871921  0.70771669  0.55199773    -0.07500
C680        C  0.00759823  0.68236574  0.53773393    -0.08300
C681        C  0.97491082  0.69567986  0.55628970    -0.02800
C682        C  0.99531629  0.73744428  0.58796582     0.04000
N683        N  0.96363251  0.75246137  0.60829060     0.66500
H684        H  0.06131385  0.79355545  0.62854488     0.15400
H685        H  0.99308096  0.65124039  0.51244041     0.15100
N686        N  0.09022832  0.69337656  0.52970743     0.74200
O687        O  0.93856083  0.73227499  0.64811533    -0.39300
O688        O  0.96817641  0.79155328  0.59220660    -0.39200
O689        O  0.08705669  0.65483362  0.54544062    -0.39900
O690        O  0.11030478  0.71106232  0.48727216    -0.40000
C691        C  0.32599038  0.97777203  0.76382153    -0.12300
C692        C  0.28712971  0.96252528  0.72794990     0.04700
C693        C  0.27383553  0.99634631  0.71354903    -0.07500
C694        C  0.29886774  0.04351318  0.73521731    -0.08300
C695        C  0.33900814  0.05909784  0.76925808    -0.02800
C696        C  0.35219394  0.02550058  0.78390684     0.04000
N697        N  0.39204876  0.03918806  0.81928133     0.66500
H698        H  0.33726373  0.95294116  0.77567493     0.15400
H699        H  0.28898166  0.06926596  0.72281505     0.15100
N700        N  0.23718659  0.98476472  0.67506949     0.74200
O701        O  0.38135432  0.03086395  0.86555227    -0.39300
O702        O  0.43486844  0.04943164  0.80381666    -0.39200
O703        O  0.19438591  0.97703427  0.68675681    -0.39900
O704        O  0.25140592  0.99294270  0.62960569    -0.40000
C705        C  0.37951865  0.77151324  0.71010420    -0.12300
C706        C  0.36333801  0.80104341  0.73011122     0.04700
C707        C  0.39510911  0.83818769  0.76512596    -0.07500
C708        C  0.43849463  0.84096239  0.78362434    -0.08300
C709        C  0.45136154  0.80794109  0.76727053    -0.02800
C710        C  0.42276216  0.77424556  0.72873554     0.04000
N711        N  0.43345932  0.73862876  0.71243167     0.66500
H712        H  0.35595565  0.74300089  0.68302809     0.15400
H713        H  0.46035264  0.86692033  0.81333850     0.15100
N714        N  0.38126696  0.86991764  0.78622266     0.74200
O715        O  0.42048948  0.70150694  0.73995978    -0.39300
O716        O  0.44542347  0.73859356  0.66706231    -0.39200
O717        O  0.36330486  0.86182354  0.83033663    -0.39900
O718        O  0.39647078  0.91092200  0.76521850    -0.40000
C719        C  0.16428758  0.52800173  0.61163953    -0.12300
C720        C  0.16162514  0.52731083  0.55892902     0.04700
C721        C  0.15520042  0.56236660  0.53420820    -0.07500
C722        C  0.15767954  0.60053561  0.56156068    -0.08300
C723        C  0.16546134  0.60430309  0.61387489    -0.02800
C724        C  0.16578793  0.56562852  0.63928571     0.04000
N725        N  0.16977762  0.56479483  0.69285506     0.66500
H726        H  0.16784343  0.50062067  0.63152776     0.15400
H727        H  0.15555127  0.62846729  0.54111099     0.15100
N728        N  0.14606654  0.55978319  0.48127447     0.74200
O729        O  0.12975190  0.54299111  0.71933710    -0.39300
O730        O  0.21154356  0.57635973  0.71239961    -0.39200
O731        O  0.10077739  0.53725673  0.46568355    -0.39900
O732        O  0.18197987  0.58865238  0.45181707    -0.40000
C733        C  0.00304791  0.66578812  0.05925638    -0.12300
C734        C  0.97499802  0.68795662  0.06110571     0.04700
C735        C  0.99980940  0.73715487  0.07862223    -0.07500
C736        C  0.05084758  0.76225019  0.09466054    -0.08300
C737        C  0.07848503  0.73949085  0.09383673    -0.02800
C738        C  0.05359036  0.69042867  0.07541239     0.04000
N739        N  0.07846494  0.66425779  0.07330922     0.66500
H740        H  0.98529582  0.62814354  0.04604346     0.15400
H741        H  0.06881049  0.79986092  0.10796839     0.15100
N742        N  0.97349802  0.76180186  0.08201608     0.74200
O743        O  0.07537612  0.63827424  0.11053383    -0.39300
O744        O  0.09417112  0.65905874  0.03153706    -0.39200
O745        O  0.95638986  0.76449708  0.12404642    -0.39900
O746        O  0.97636393  0.78886220  0.04597839    -0.40000
C747        C  0.32073924  0.97683841  0.26865562    -0.12300
C748        C  0.27799765  0.95901498  0.23742997     0.04700
C749        C  0.26121688  0.99083875  0.22640573    -0.07500
C750        C  0.28875976  0.03987298  0.24419695    -0.08300
C751        C  0.33304978  0.05825277  0.27324450    -0.02800
C752        C  0.34813973  0.02559136  0.28632278     0.04000
N753        N  0.39169780  0.04147033  0.31722265     0.66500
H754        H  0.33439489  0.95334471  0.27813398     0.15400
H755        H  0.27646652  0.06422613  0.23360384     0.15100
N756        N  0.21664442  0.97417432  0.19682342     0.74200
O757        O  0.38667799  0.03859559  0.36449007    -0.39300
O758        O  0.43203044  0.04882331  0.29772682    -0.39200
O759        O  0.17342034  0.94092368  0.21369319    -0.39900
O760        O  0.22050564  0.99190038  0.15334523    -0.40000
C761        C  0.38871747  0.83742577  0.27650680    -0.12300
C762        C  0.36569358  0.80726889  0.23427864     0.04700
C763        C  0.39063824  0.78731981  0.20990007    -0.07500
C764        C  0.43512565  0.79414650  0.23050644    -0.08300
C765        C  0.45455070  0.81914983  0.27618097    -0.02800
C766        C  0.43236703  0.84292884  0.29799426     0.04000
N767        N  0.45214793  0.87073977  0.34328473     0.66500
H768        H  0.37028598  0.85319067  0.29567272     0.15400
H769        H  0.45178526  0.77587010  0.21302905     0.15100
N770        N  0.36942116  0.75711200  0.16621342     0.74200
O771        O  0.48369962  0.91690629  0.34049121    -0.39300
O772        O  0.43002780  0.85157261  0.38464392    -0.39200
O773        O  0.38592914  0.77613755  0.12323933    -0.39900
O774        O  0.34374537  0.71062568  0.17101057    -0.40000
C775        C  0.22989767  0.63063321  0.06838224    -0.12300
C776        C  0.19125473  0.61866898  0.10320403     0.04700
C777        C  0.15451007  0.56865205  0.11427303    -0.07500
C778        C  0.15628180  0.53147200  0.08931119    -0.08300
C779        C  0.19474823  0.54350172  0.05382410    -0.02800
C780        C  0.23214905  0.59384945  0.04374840     0.04000
N781        N  0.27461599  0.60840556  0.01128971     0.66500
H782        H  0.26002723  0.66897907  0.06197797     0.15400
H783        H  0.12740649  0.49309705  0.09765872     0.15100
N784        N  0.11504053  0.55509065  0.15029827     0.74200
O785        O  0.27452950  0.62248121  0.96689504    -0.39300
O786        O  0.31574128  0.61711195  0.02991384    -0.39200
O787        O  0.07112095  0.54151118  0.13522681    -0.39900
O788        O  0.12104559  0.54669572  0.19532939    -0.40000
C789        C  0.23503963  0.83431691  0.94392831    -0.12300
C790        C  0.23939572  0.80160434  0.97550244     0.04700
C791        C  0.23936924  0.76201574  0.95296269    -0.07500
C792        C  0.23382163  0.75530493  0.90088201    -0.08300
C793        C  0.22828845  0.78721349  0.86934762    -0.02800
C794        C  0.22946772  0.82755418  0.89159201     0.04000
N795        N  0.22475590  0.86194984  0.86202831     0.66500
H796        H  0.23500126  0.86510196  0.95994691     0.15400
H797        H  0.23353234  0.72421394  0.88524107     0.15100
N798        N  0.24326251  0.72699840  0.98219794     0.74200
O799        O  0.18107203  0.85338101  0.85338335    -0.39300
O800        O  0.26345131  0.90489112  0.85454100    -0.39200
O801        O  0.20427653  0.68394826  0.98831101    -0.39900
O802        O  0.28672865  0.73497283  0.99069573    -0.40000
C803        C  0.24730788  0.76037940  0.39791802    -0.12300
C804        C  0.22158648  0.77664386  0.36872490     0.04700
C805        C  0.20056250  0.80027637  0.39311987    -0.07500
C806        C  0.20606652  0.80761720  0.44512348    -0.08300
C807        C  0.23149659  0.79114484  0.47439394    -0.02800
C808        C  0.25219927  0.76716313  0.45016075     0.04000
N809        N  0.27987356  0.75105536  0.47751526     0.66500
H810        H  0.26441669  0.74269435  0.38009627     0.15400
H811        H  0.18866404  0.82504605  0.46290747     0.15100
N812        N  0.17159066  0.81521054  0.36624814     0.74200
O813        O  0.25790420  0.70618893  0.49038062    -0.39300
O814        O  0.32782991  0.77855749  0.47905053    -0.39200
O815        O  0.12395316  0.78567135  0.36290782    -0.39900
O816        O  0.19157263  0.86029408  0.35535867    -0.40000
loop_ 
_geom_bond_atom_site_label_1 
_geom_bond_atom_site_label_2 
_geom_bond_distance 
_geom_bond_site_symmetry_2 
_ccdc_geom_bond_type 
O1           Ni7   1.911       .  S
O1           C22   1.266       .  A
O2          Ni25   1.899       .  S
O2           C11   1.269       .  A
O3           Ni7   1.922       .  S
O3          Ni25   1.915       .  S
O3          Ni19   1.939       .  S
O3           H26   0.966       .  S
C4           O21   1.273       .  A
C4           O13   1.279       .  A
C4          C790   1.494   1_554  S
O5          Ni24   1.954       .  S
O5           C11   1.279       .  A
O6          Ni24   1.925       .  S
O6            C8   1.275       .  A
Ni7          O10   1.925       .  S
Ni7          O12   1.898       .  S
C8           O18   1.273       .  A
C8          C737   1.501       .  S
O9          Ni25   1.907       .  S
O9           C15   1.265       .  A
O10          C15   1.267       .  A
C11         C748   1.498       .  S
O12          C14   1.271       .  A
O13         Ni24   1.943       .  S
C14          O20   1.284       .  A
C14         C762   1.481       .  S
C15         C804   1.486       .  S
H16          O17   0.961       .  S
O17         Ni25   1.895       .  S
O17         Ni19   1.891       .  S
O17         Ni24   1.915       .  S
O18         Ni19   1.933       .  S
Ni19         O23   1.902       .  S
Ni19         O21   1.909       .  S
O20         Ni25   1.960       .  S
C22          O23   1.267       .  A
C22         C776   1.467       .  S
O27         Ni33   1.915       .  S
O27          C48   1.267       .  A
O28         Ni51   1.893       .  S
O28          C37   1.266       .  A
O29         Ni33   1.923       .  S
O29         Ni51   1.920       .  S
O29         Ni45   1.938       .  S
O29          H52   0.962       .  S
C30          O47   1.276       .  A
C30          O39   1.277       .  A
C30         C807   1.485       .  S
O31         Ni50   1.948       .  S
O31          C37   1.276       .  A
O32         Ni50   1.924       .  S
O32          C34   1.273       .  A
Ni33         O36   1.927       .  S
Ni33         O38   1.899       .  S
C34          O44   1.273       .  A
C34         C678   1.493       .  S
O35         Ni51   1.911       .  S
O35          C41   1.265       .  A
O36          C41   1.270       .  A
C37         C692   1.493       .  S
O38          C40   1.271       .  A
O39         Ni50   1.928       .  S
C40          O46   1.280       .  A
C40         C706   1.487       .  S
C41         C793   1.494       .  S
H42          O43   0.965       .  S
O43         Ni51   1.895       .  S
O43         Ni45   1.899       .  S
O43         Ni50   1.917       .  S
O44         Ni45   1.930       .  S
Ni45         O49   1.910       .  S
Ni45         O47   1.918       .  S
O46         Ni51   1.956       .  S
C48          O49   1.270       .  A
C48         C723   1.492       .  S
O53         Ni59   1.924       .  S
O53          C74   1.269       .  A
O54         Ni77   1.896       .  S
O54          C63   1.267       .  A
O55         Ni59   1.922       .  S
O55         Ni77   1.925       .  S
O55         Ni71   1.937       .  S
O55          H78   0.966       .  S
C56          O73   1.276       .  A
C56          O65   1.277       .  A
C56         C664   1.489       .  S
O57         Ni76   1.941       .  S
O57          C63   1.273       .  A
O58         Ni76   1.914       .  S
O58          C60   1.269       .  A
Ni59         O62   1.920       .  S
Ni59         O64   1.897       .  S
C60          O70   1.270       .  A
C60         C611   1.482       .  S
O61         Ni77   1.897       .  S
O61          C67   1.263       .  A
O62          C67   1.269       .  A
C63         C622   1.476       .  S
O64          C66   1.272       .  A
O65         Ni76   1.933       .  S
C66          O72   1.281       .  A
C66         C639   1.480       .  S
C67         C650   1.476       .  S
H68          O69   0.965       .  S
O69         Ni77   1.892       .  S
O69         Ni71   1.894       .  S
O69         Ni76   1.921       .  S
O70         Ni71   1.917       .  S
Ni71         O75   1.906       .  S
Ni71         O73   1.910       .  S
O72         Ni77   1.956       .  S
C74          O75   1.266       .  A
C74         C765   1.482       .  S
O79         Ni85   1.929       .  S
O79         C100   1.270       .  A
O80        Ni103   1.900       .  S
O80          C89   1.267       .  A
O81         Ni85   1.914       .  S
O81        Ni103   1.908       .  S
O81         Ni97   1.915       .  S
O81         H104   0.967       .  S
C82          O99   1.272       .  A
C82          O91   1.278       .  A
C82         C653   1.473       .  S
O83        Ni102   1.940       .  S
O83          C89   1.274       .  A
O84        Ni102   1.910       .  S
O84          C86   1.269       .  A
Ni85         O88   1.922       .  S
Ni85         O90   1.901       .  S
C86          O96   1.274       .  A
C86         C566   1.482       .  S
O87        Ni103   1.912       .  S
O87          C93   1.275       .  A
O88          C93   1.274       .  A
C89         C580   1.479       .  S
O90          C92   1.267       .  A
O91        Ni102   1.931       .  S
C92          O98   1.270       .  A
C92         C594   1.462       .  S
C93         C667   1.491   1_556  S
H94          O95   0.966       .  S
O95        Ni103   1.906       .  S
O95         Ni97   1.899       .  S
O95        Ni102   1.914       .  S
O96         Ni97   1.924       .  S
Ni97        O101   1.908       .  S
Ni97         O99   1.901       .  S
O98        Ni103   1.924       .  S
C100        O101   1.266       .  A
C100        C709   1.471       .  S
O105       Ni111   1.924       .  S
O105        C126   1.271   1_556  A
O106       Ni129   1.893       .  S
O106        C115   1.269       .  A
O107       Ni111   1.892       .  S
O107       Ni129   1.888       .  S
O107       Ni123   1.909   1_556  S
O107        H130   0.983       .  S
C108        O125   1.279       .  A
C108        O117   1.281       .  A
C108        C527   1.487       .  S
O109       Ni128   1.953   1_556  S
O109        C115   1.281       .  A
O110       Ni128   1.926       .  S
O110        C112   1.275       .  A
Ni111       O114   1.912       .  S
Ni111       O116   1.907       .  S
C112        O122   1.271       .  A
C112        C538   1.491       .  S
O113       Ni129   1.929       .  S
O113        C119   1.280       .  A
O114        C119   1.274       .  A
C115        C552   1.479       .  S
O116        C118   1.268       .  A
O117       Ni128   1.944       .  S
C118        O124   1.272       .  A
C118        C597   1.470       .  S
C119        C513   1.488       .  S
H120        O121   0.968       .  S
O121       Ni129   1.902   1_554  S
O121       Ni123   1.888       .  S
O121       Ni128   1.899       .  S
O122       Ni123   1.923       .  S
Ni123       O127   1.907       .  S
Ni123       O125   1.906       .  S
O124       Ni129   1.928       .  S
C126        O127   1.270       .  A
C126        C779   1.477       .  S
O131       Ni137   1.928       .  S
O131        C152   1.271       .  A
O132       Ni155   1.913       .  S
O132        C141   1.274       .  A
O133       Ni137   1.904       .  S
O133       Ni155   1.907       .  S
O133       Ni149   1.916       .  S
O133        H156   0.960       .  S
C134        O151   1.277       .  A
C134        O143   1.276       .  A
C134        C510   1.477       .  S
O135       Ni154   1.935       .  S
O135        C141   1.275       .  A
O136       Ni154   1.925       .  S
O136        C138   1.272       .  A
Ni137       O140   1.916       .  S
Ni137       O142   1.903       .  S
C138        O148   1.269       .  A
C138        C482   1.482       .  S
O139       Ni155   1.920       .  S
O139        C145   1.277       .  A
O140        C145   1.273       .  A
C141        C496   1.489       .  S
O142        C144   1.270       .  A
O143       Ni154   1.926       .  S
C144        O150   1.279       .  A
C144        C636   1.486       .  S
C145        C524   1.489       .  S
H146        O147   0.964       .  S
O147       Ni155   1.908       .  S
O147       Ni149   1.901       .  S
O147       Ni154   1.915       .  S
O148       Ni149   1.915       .  S
Ni149       O153   1.909       .  S
Ni149       O151   1.912       .  S
O150       Ni155   1.944       .  S
C152        O153   1.268       .  A
C152        C720   1.483       .  S
O157       Ni163   1.923       .  S
O157        C178   1.269       .  A
O158       Ni181   1.908       .  S
O158        C167   1.269       .  A
O159       Ni163   1.924       .  S
O159       Ni181   1.923       .  S
O159       Ni175   1.935       .  S
O159        H182   0.966       .  S
C160        O177   1.273       .  A
C160        O169   1.273       .  A
C160        C471   1.487       .  S
O161       Ni180   1.937       .  S
O161        C167   1.274       .  A
O162       Ni180   1.925       .  S
O162        C164   1.274       .  A
Ni163       O166   1.927       .  S
Ni163       O168   1.898       .  S
C164        O174   1.274       .  A
C164        C751   1.494       .  S
O165       Ni181   1.904       .  S
O165        C171   1.267       .  A
O166        C171   1.269       .  A
C167        C499   1.480       .  S
O168        C170   1.271       .  A
O169       Ni180   1.928       .  S
C170        O176   1.282       .  A
C170        C440   1.483       .  S
C171        C454   1.484       .  S
H172        O173   0.967       .  S
O173       Ni181   1.902       .  S
O173       Ni175   1.899       .  S
O173       Ni180   1.924       .  S
O174       Ni175   1.936       .  S
Ni175       O179   1.907       .  S
Ni175       O177   1.909       .  S
O176       Ni181   1.964       .  S
C178        O179   1.266       .  A
C178        C426   1.480       .  S
O183       Ni189   1.915       .  S
O183        C204   1.270       .  A
O184       Ni207   1.903       .  S
O184        C193   1.268       .  A
O185       Ni189   1.921       .  S
O185       Ni207   1.921       .  S
O185       Ni201   1.944       .  S
O185        H208   0.966       .  S
C186        O203   1.276       .  A
C186        O195   1.277       .  A
C186        C457   1.487       .  S
O187       Ni206   1.943       .  S
O187        C193   1.274       .  A
O188       Ni206   1.912       .  S
O188        C190   1.270       .  A
Ni189       O192   1.929       .  S
Ni189       O194   1.889       .  S
C190        O200   1.271       .  A
C190        C695   1.480       .  S
O191       Ni207   1.898       .  S
O191        C197   1.265       .  A
O192        C197   1.268       .  A
C193        C555   1.483       .  S
O194        C196   1.269       .  A
O195       Ni206   1.934       .  S
C196        O202   1.283       .  A
C196        C412   1.481       .  S
C197        C468   1.484   1_556  S
H198        O199   0.966       .  S
O199       Ni207   1.891       .  S
O199       Ni201   1.894       .  S
O199       Ni206   1.919       .  S
O200       Ni201   1.929       .  S
Ni201       O205   1.912       .  S
Ni201       O203   1.909       .  S
O202       Ni207   1.963       .  S
C204        O205   1.266       .  A
C204        C398   1.484       .  S
O209       Ni215   1.914       .  S
O209        C230   1.267       .  A
O210       Ni233   1.889       .  S
O210        C219   1.265       .  A
O211       Ni215   1.925       .  S
O211       Ni233   1.916       .  S
O211       Ni227   1.939       .  S
O211        H234   0.964       .  S
C212        O229   1.276       .  A
C212        O221   1.277       .  A
C212        C373   1.494   1_554  S
O213       Ni232   1.945       .  S
O213        C219   1.277       .  A
O214       Ni232   1.923       .  S
O214        C216   1.272       .  A
Ni215       O218   1.932       .  S
Ni215       O220   1.897       .  S
C216        O226   1.274       .  A
C216        C541   1.497       .  S
O217       Ni233   1.909       .  S
O217        C223   1.267       .  A
O218        C223   1.269       .  A
C219        C608   1.485       .  S
O220        C222   1.269       .  A
O221       Ni232   1.942       .  S
C222        O228   1.281       .  A
C222        C429   1.481       .  S
C223        C384   1.494       .  S
H224        O225   0.960       .  S
O225       Ni233   1.899       .  S
O225       Ni227   1.889       .  S
O225       Ni232   1.923       .  S
O226       Ni227   1.925       .  S
Ni227       O231   1.904       .  S
Ni227       O229   1.910       .  S
O228       Ni233   1.955       .  S
C230        O231   1.267       .  A
C230        C356   1.477       .  S
O235       Ni241   1.914       .  S
O235        C256   1.267       .  A
O236       Ni259   1.893       .  S
O236        C245   1.265       .  A
O237       Ni241   1.924       .  S
O237       Ni259   1.914       .  S
O237       Ni253   1.934       .  S
O237        H260   0.964       .  S
C238        O255   1.275       .  A
C238        O247   1.278       .  A
C238        C387   1.493       .  S
O239       Ni258   1.946       .  S
O239        C245   1.276       .  A
O240       Ni258   1.919       .  S
O240        C242   1.271       .  A
Ni241       O244   1.932       .  S
Ni241       O246   1.902       .  S
C242        O252   1.275       .  A
C242        C485   1.487       .  S
O243       Ni259   1.907       .  S
O243        C249   1.267       .  A
O244        C249   1.270       .  A
C245        C569   1.490       .  S
O246        C248   1.270       .  A
O247       Ni258   1.946       .  S
C248        O254   1.280       .  A
C248        C401   1.483       .  S
C249        C370   1.494       .  S
H250        O251   0.962       .  S
O251       Ni259   1.904       .  S
O251       Ni253   1.901       .  S
O251       Ni258   1.925       .  S
O252       Ni253   1.932       .  S
Ni253       O257   1.912       .  S
Ni253       O255   1.911       .  S
O254       Ni259   1.959       .  S
C256        O257   1.270       .  A
C256        C345   1.485       .  S
O261       Ni267   1.918       .  S
O261        C282   1.268   1_556  A
O262       Ni285   1.888       .  S
O262        C271   1.269       .  A
O263       Ni267   1.883       .  S
O263       Ni285   1.895       .  S
O263       Ni279   1.906   1_556  S
O263        H286   0.968       .  S
C264        O281   1.279       .  A
C264        O273   1.282       .  A
C264        C328   1.484       .  S
O265       Ni284   1.954   1_556  S
O265        C271   1.280       .  A
O266       Ni284   1.929       .  S
O266        C268   1.274       .  A
Ni267       O270   1.907       .  S
Ni267       O272   1.904       .  S
C268        O278   1.272       .  A
C268        C734   1.497       .  S
O269       Ni285   1.926       .  S
O269        C275   1.275       .  A
O270        C275   1.275       .  A
C271        C583   1.478       .  S
O272        C274   1.270       .  A
O273       Ni284   1.934       .  S
C274        O280   1.277       .  A
C274        C415   1.490       .  S
C275        C314   1.481       .  S
H276        O277   0.965       .  S
O277       Ni285   1.894   1_554  S
O277       Ni279   1.893       .  S
O277       Ni284   1.899       .  S
O278       Ni279   1.925       .  S
Ni279       O283   1.919       .  S
Ni279       O281   1.907       .  S
O280       Ni285   1.945       .  S
C282        O283   1.274       .  A
C282        C359   1.490       .  S
O287       Ni293   1.914       .  S
O287        C308   1.268       .  A
O288       Ni311   1.894       .  S
O288        C297   1.268       .  A
O289       Ni293   1.886       .  S
O289       Ni311   1.892       .  S
O289       Ni305   1.908       .  S
O289        H312   0.968       .  S
C290        O307   1.280       .  A
C290        O299   1.280       .  A
C290        C317   1.484       .  S
O291       Ni310   1.945       .  S
O291        C297   1.278       .  A
O292       Ni310   1.922       .  S
O292        C294   1.273       .  A
Ni293       O296   1.905       .  S
Ni293       O298   1.906       .  S
C294        O304   1.274       .  A
C294        C681   1.488       .  S
O295       Ni311   1.928       .  S
O295        C301   1.278       .  A
O296        C301   1.275       .  A
C297        C625   1.474       .  S
O298        C300   1.269       .  A
O299       Ni310   1.929       .  S
C300        O306   1.275       .  A
C300        C443   1.487       .  S
C301        C331   1.476       .  S
H302        O303   0.965       .  S
O303       Ni311   1.901       .  S
O303       Ni305   1.897       .  S
O303       Ni310   1.903       .  S
O304       Ni305   1.929       .  S
Ni305       O309   1.928       .  S
Ni305       O307   1.911       .  S
O306       Ni311   1.942       .  S
C308        O309   1.276       .  A
C308        C342   1.491       .  S
C313        C314   1.403       .  A
C313        C318   1.392       .  A
C313        H320   1.084       .  S
C314        C315   1.413       .  A
C315        C316   1.401       .  A
C315        N322   1.430       .  S
C316        C317   1.409       .  A
C316        H321   1.084       .  S
C317        C318   1.410       .  A
C318        N319   1.426       .  S
N319        O323   1.262       .  A
N319        O324   1.262       .  A
N322        O326   1.262       .  A
N322        O325   1.262       .  A
C327        C328   1.410       .  A
C327        C332   1.398       .  A
C327        H334   1.083       .  S
C328        C329   1.412       .  A
C329        C330   1.394       .  A
C329        N336   1.427       .  S
C330        C331   1.404       .  A
C330        H335   1.084       .  S
C331        C332   1.408       .  A
C332        N333   1.429       .  S
N333        O337   1.262       .  A
N333        O338   1.262       .  A
N336        O340   1.262       .  A
N336        O339   1.261       .  A
C341        C342   1.400       .  A
C341        C346   1.400       .  A
C341        H348   1.077       .  S
C342        C343   1.419       .  A
C343        C344   1.400       .  A
C343        N350   1.430       .  S
C344        C345   1.402       .  A
C344        H349   1.083       .  S
C345        C346   1.416       .  A
C346        N347   1.430       .  S
N347        O351   1.262       .  A
N347        O352   1.262       .  A
N350        O354   1.262       .  A
N350        O353   1.262       .  A
C355        C356   1.401       .  A
C355        C360   1.398       .  A
C355        H362   1.084       .  S
C356        C357   1.412       .  A
C357        C358   1.401       .  A
C357        N364   1.430       .  S
C358        C359   1.404       .  A
C358        H363   1.080       .  S
C359        C360   1.420       .  A
C360        N361   1.430   1_554  S
N361        O365   1.262       .  A
N361        O366   1.262       .  A
N364        O368   1.262       .  A
N364        O367   1.262       .  A
C369        C370   1.406       .  A
C369        C374   1.402       .  A
C369        H376   1.084       .  S
C370        C371   1.417       .  A
C371        C372   1.400       .  A
C371        N378   1.429       .  S
C372        C373   1.406       .  A
C372        H377   1.083       .  S
C373        C374   1.417       .  A
C374        N375   1.429       .  S
N375        O379   1.262       .  A
N375        O380   1.262       .  A
N378        O382   1.262       .  A
N378        O381   1.262       .  A
C383        C384   1.407       .  A
C383        C388   1.405       .  A
C383        H390   1.084       .  S
C384        C385   1.415       .  A
C385        C386   1.401       .  A
C385        N392   1.429       .  S
C386        C387   1.405       .  A
C386        H391   1.083       .  S
C387        C388   1.416       .  A
C388        N389   1.429       .  S
N389        O393   1.262       .  A
N389        O394   1.262       .  A
N392        O396   1.262       .  A
N392        O395   1.262       .  A
C397        C398   1.400       .  A
C397        C402   1.397       .  A
C397        H404   1.084       .  S
C398        C399   1.412       .  A
C399        C400   1.406       .  A
C399        N406   1.428       .  S
C400        C401   1.406       .  A
C400        H405   1.084       .  S
C401        C402   1.413       .  A
C402        N403   1.427       .  S
N403        O407   1.260       .  A
N403        O408   1.261       .  A
N406        O410   1.262       .  A
N406        O409   1.262       .  A
C411        C412   1.408       .  A
C411        C416   1.411       .  A
C411        H418   1.084       .  S
C412        C413   1.410       .  A
C413        C414   1.394       .  A
C413        N420   1.431       .  S
C414        C415   1.406       .  A
C414        H419   1.084       .  S
C415        C416   1.414       .  A
C416        N417   1.428       .  S
N417        O421   1.262       .  A
N417        O422   1.262   1_556  A
N420        O424   1.262       .  A
N420        O423   1.261       .  A
C425        C426   1.403       .  A
C425        C430   1.401       .  A
C425        H432   1.084       .  S
C426        C427   1.412       .  A
C427        C428   1.403       .  A
C427        N434   1.429       .  S
C428        C429   1.404       .  A
C428        H433   1.084       .  S
C429        C430   1.414       .  A
C430        N431   1.430       .  S
N431        O435   1.262       .  A
N431        O436   1.262       .  A
N434        O438   1.262       .  A
N434        O437   1.262       .  A
C439        C440   1.409       .  A
C439        C444   1.412       .  A
C439        H446   1.084       .  S
C440        C441   1.408       .  A
C441        C442   1.396       .  A
C441        N448   1.430       .  S
C442        C443   1.405       .  A
C442        H447   1.084       .  S
C443        C444   1.412       .  A
C444        N445   1.429       .  S
N445        O449   1.262       .  A
N445        O450   1.262       .  A
N448        O452   1.262       .  A
N448        O451   1.262       .  A
C453        C454   1.403       .  A
C453        C458   1.400       .  A
C453        H460   1.084       .  S
C454        C455   1.415       .  A
C455        C456   1.398       .  A
C455        N462   1.429       .  S
C456        C457   1.403       .  A
C456        H461   1.083       .  S
C457        C458   1.417       .  A
C458        N459   1.429       .  S
N459        O463   1.262       .  A
N459        O464   1.262       .  A
N462        O466   1.262       .  A
N462        O465   1.262       .  A
C467        C468   1.402       .  A
C467        C472   1.397       .  A
C467        H474   1.084       .  S
C468        C469   1.414       .  A
C469        C470   1.401       .  A
C469        N476   1.429       .  S
C470        C471   1.405       .  A
C470        H475   1.084       .  S
C471        C472   1.417       .  A
C472        N473   1.430       .  S
N473        O477   1.262       .  A
N473        O478   1.262       .  A
N476        O480   1.262       .  A
N476        O479   1.262       .  A
C481        C482   1.406       .  A
C481        C486   1.409   1_455  A
C481        H488   1.084       .  S
C482        C483   1.410       .  A
C483        C484   1.396   1_455  A
C483        N490   1.430       .  S
C484        C485   1.404       .  A
C484        H489   1.084       .  S
C485        C486   1.414       .  A
C486        N487   1.428       .  S
N487        O491   1.262       .  A
N487        O492   1.262       .  A
N490        O494   1.262       .  A
N490        O493   1.262       .  A
C495        C496   1.404       .  A
C495        C500   1.403       .  A
C495        H502   1.084       .  S
C496        C497   1.418       .  A
C497        C498   1.404       .  A
C497        N504   1.429       .  S
C498        C499   1.400       .  A
C498        H503   1.084       .  S
C499        C500   1.411       .  A
C500        N501   1.429       .  S
N501        O505   1.262       .  A
N501        O506   1.262       .  A
N504        O508   1.262       .  A
N504        O507   1.262       .  A
C509        C510   1.401       .  A
C509        C514   1.399       .  A
C509        H516   1.084       .  S
C510        C511   1.411       .  A
C511        C512   1.398       .  A
C511        N518   1.429       .  S
C512        C513   1.407       .  A
C512        H517   1.084       .  S
C513        C514   1.418       .  A
C514        N515   1.429       .  S
N515        O519   1.262       .  A
N515        O520   1.262       .  A
N518        O522   1.262       .  A
N518        O521   1.262       .  A
C523        C524   1.405       .  A
C523        C528   1.400       .  A
C523        H530   1.084       .  S
C524        C525   1.418       .  A
C525        C526   1.399       .  A
C525        N532   1.431       .  S
C526        C527   1.404       .  A
C526        H531   1.084       .  S
C527        C528   1.415       .  A
C528        N529   1.429       .  S
N529        O533   1.262       .  A
N529        O534   1.262       .  A
N532        O536   1.262       .  A
N532        O535   1.262       .  A
C537        C538   1.408       .  A
C537        C542   1.410   1_455  A
C537        H544   1.084       .  S
C538        C539   1.414       .  A
C539        C540   1.395   1_455  A
C539        N546   1.430       .  S
C540        C541   1.407       .  A
C540        H545   1.084       .  S
C541        C542   1.416       .  A
C542        N543   1.428       .  S
N543        O547   1.262       .  A
N543        O548   1.262       .  A
N546        O550   1.262       .  A
N546        O549   1.262   1_554  A
C551        C552   1.402       .  A
C551        C556   1.404       .  A
C551        H558   1.084       .  S
C552        C553   1.412       .  A
C553        C554   1.399       .  A
C553        N560   1.430       .  S
C554        C555   1.403       .  A
C554        H559   1.084       .  S
C555        C556   1.414       .  A
C556        N557   1.428       .  S
N557        O561   1.262       .  A
N557        O562   1.262       .  A
N560        O564   1.262       .  A
N560        O563   1.262       .  A
C565        C566   1.399       .  A
C565        C570   1.396   1_565  A
C565        H572   1.084       .  S
C566        C567   1.414       .  A
C567        C568   1.404       .  A
C567        N574   1.429       .  S
C568        C569   1.406   1_565  A
C568        H573   1.084   1_565  S
C569        C570   1.415       .  A
C570        N571   1.425       .  S
N571        O575   1.262       .  A
N571        O576   1.262       .  A
N574        O578   1.262       .  A
N574        O577   1.262       .  A
C579        C580   1.405       .  A
C579        C584   1.404       .  A
C579        H586   1.084       .  S
C580        C581   1.411       .  A
C581        C582   1.397       .  A
C581        N588   1.429       .  S
C582        C583   1.403       .  A
C582        H587   1.084       .  S
C583        C584   1.410       .  A
C584        N585   1.428       .  S
N585        O589   1.262       .  A
N585        O590   1.262       .  A
N588        O592   1.261       .  A
N588        O591   1.262       .  A
C593        C594   1.397       .  A
C593        C598   1.396       .  A
C593        H600   1.084       .  S
C594        C595   1.409       .  A
C595        C596   1.401       .  A
C595        N602   1.429       .  S
C596        C597   1.401       .  A
C596        H601   1.084       .  S
C597        C598   1.413       .  A
C598        N599   1.430       .  S
N599        O603   1.262       .  A
N599        O604   1.262       .  A
N602        O606   1.261       .  A
N602        O605   1.262   1_556  A
C607        C608   1.407   1_565  A
C607        C612   1.404       .  A
C607        H614   1.084   1_565  S
C608        C609   1.415   1_545  A
C609        C610   1.395       .  A
C609        N616   1.430   1_565  S
C610        C611   1.404       .  A
C610        H615   1.084       .  S
C611        C612   1.412       .  A
C612        N613   1.429       .  S
N613        O617   1.262       .  A
N613        O618   1.262       .  A
N616        O620   1.262       .  A
N616        O619   1.262       .  A
C621        C622   1.401       .  A
C621        C626   1.397       .  A
C621        H628   1.084       .  S
C622        C623   1.413       .  A
C623        C624   1.403       .  A
C623        N630   1.429       .  S
C624        C625   1.402       .  A
C624        H629   1.084       .  S
C625        C626   1.410       .  A
C626        N627   1.429       .  S
N627        O631   1.262       .  A
N627        O632   1.262       .  A
N630        O634   1.262       .  A
N630        O633   1.262       .  A
C635        C636   1.404       .  A
C635        C640   1.409       .  A
C635        H642   1.084       .  S
C636        C637   1.414       .  A
C637        C638   1.395       .  A
C637        N644   1.428       .  S
C638        C639   1.398       .  A
C638        H643   1.085       .  S
C639        C640   1.413       .  A
C640        N641   1.426       .  S
N641        O645   1.262       .  A
N641        O646   1.262       .  A
N644        O648   1.262       .  A
N644        O647   1.262       .  A
C649        C650   1.403       .  A
C649        C654   1.397       .  A
C649        H656   1.084       .  S
C650        C651   1.414       .  A
C651        C652   1.399       .  A
C651        N658   1.429       .  S
C652        C653   1.401       .  A
C652        H657   1.084       .  S
C653        C654   1.412       .  A
C654        N655   1.431       .  S
N655        O659   1.262       .  A
N655        O660   1.262       .  A
N658        O662   1.261       .  A
N658        O661   1.262       .  A
C663        C664   1.405       .  A
C663        C668   1.401       .  A
C663        H670   1.084       .  S
C664        C665   1.415       .  A
C665        C666   1.397       .  A
C665        N672   1.429       .  S
C666        C667   1.406       .  A
C666        H671   1.084       .  S
C667        C668   1.418       .  A
C668        N669   1.430       .  S
N669        O673   1.262       .  A
N669        O674   1.262       .  A
N672        O676   1.262       .  A
N672        O675   1.262       .  A
C677        C678   1.406       .  A
C677        C682   1.410   1_455  A
C677        H684   1.084       .  S
C678        C679   1.417       .  A
C679        C680   1.398       .  A
C679        N686   1.429       .  S
C680        C681   1.400   1_455  A
C680        H685   1.084   1_455  S
C681        C682   1.416       .  A
C682        N683   1.428       .  S
N683        O687   1.262       .  A
N683        O688   1.262       .  A
N686        O690   1.261       .  A
N686        O689   1.261       .  A
C691        C692   1.409       .  A
C691        C696   1.400   1_565  A
C691        H698   1.083       .  S
C692        C693   1.416       .  A
C693        C694   1.403   1_565  A
C693        N700   1.429       .  S
C694        C695   1.403       .  A
C694        H699   1.084       .  S
C695        C696   1.408       .  A
C696        N697   1.429       .  S
N697        O701   1.262       .  A
N697        O702   1.262       .  A
N700        O704   1.262       .  A
N700        O703   1.262       .  A
C705        C706   1.407       .  A
C705        C710   1.401       .  A
C705        H712   1.084       .  S
C706        C707   1.415       .  A
C707        C708   1.403       .  A
C707        N714   1.429       .  S
C708        C709   1.400       .  A
C708        H713   1.084       .  S
C709        C710   1.408       .  A
C710        N711   1.431       .  S
N711        O715   1.262       .  A
N711        O716   1.262       .  A
N714        O718   1.262       .  A
N714        O717   1.262       .  A
C719        C720   1.402       .  A
C719        C724   1.401       .  A
C719        H726   1.084       .  S
C720        C721   1.412       .  A
C721        C722   1.399       .  A
C721        N728   1.429       .  S
C722        C723   1.405       .  A
C722        H727   1.083       .  S
C723        C724   1.421       .  A
C724        N725   1.430       .  S
N725        O729   1.262       .  A
N725        O730   1.262       .  A
N728        O732   1.262       .  A
N728        O731   1.262       .  A
C733        C734   1.405   1_455  A
C733        C738   1.398       .  A
C733        H740   1.084   1_455  S
C734        C735   1.415       .  A
C735        C736   1.410   1_655  A
C735        N742   1.428       .  S
C736        C737   1.409       .  A
C736        H741   1.083       .  S
C737        C738   1.419       .  A
C738        N739   1.430       .  S
N739        O743   1.262       .  A
N739        O744   1.262       .  A
N742        O746   1.262       .  A
N742        O745   1.262       .  A
C747        C748   1.407       .  A
C747        C752   1.402   1_565  A
C747        H754   1.084       .  S
C748        C749   1.416       .  A
C749        C750   1.410   1_565  A
C749        N756   1.430       .  S
C750        C751   1.408       .  A
C750        H755   1.084       .  S
C751        C752   1.413       .  A
C752        N753   1.429       .  S
N753        O757   1.262       .  A
N753        O758   1.262       .  A
N756        O760   1.262       .  A
N756        O759   1.262       .  A
C761        C762   1.404       .  A
C761        C766   1.402       .  A
C761        H768   1.084       .  S
C762        C763   1.414       .  A
C763        C764   1.400       .  A
C763        N770   1.430       .  S
C764        C765   1.403       .  A
C764        H769   1.084       .  S
C765        C766   1.413       .  A
C766        N767   1.429       .  S
N767        O771   1.262       .  A
N767        O772   1.262       .  A
N770        O774   1.262       .  A
N770        O773   1.262       .  A
C775        C776   1.398       .  A
C775        C780   1.394       .  A
C775        H782   1.083       .  S
C776        C777   1.408       .  A
C777        C778   1.401       .  A
C777        N784   1.428       .  S
C778        C779   1.405       .  A
C778        H783   1.084       .  S
C779        C780   1.414       .  A
C780        N781   1.430       .  S
N781        O785   1.262   1_554  A
N781        O786   1.262       .  A
N784        O788   1.262       .  A
N784        O787   1.262       .  A
C789        C790   1.409       .  A
C789        C794   1.404       .  A
C789        H796   1.083       .  S
C790        C791   1.413       .  A
C791        C792   1.398       .  A
C791        N798   1.427       .  S
C792        C793   1.407       .  A
C792        H797   1.084       .  S
C793        C794   1.415       .  A
C794        N795   1.429       .  S
N795        O799   1.262       .  A
N795        O800   1.261       .  A
N798        O802   1.262       .  A
N798        O801   1.262       .  A
C803        C804   1.409       .  A
C803        C808   1.401       .  A
C803        H810   1.084       .  S
C804        C805   1.411       .  A
C805        C806   1.397       .  A
C805        N812   1.429       .  S
C806        C807   1.408       .  A
C806        H811   1.084       .  S
C807        C808   1.410       .  A
C808        N809   1.429       .  S
N809        O813   1.262       .  A
N809        O814   1.262       .  A
N812        O816   1.262       .  A
N812        O815   1.262       .  A
