geometry optimzed in LAMMPS
_audit_creation_date              2020-11-30 
_audit_creation_method            'lammps2cif' 
_symmetry_space_group_name_H-M    'P1' 
_symmetry_Int_Tables_number       1 
_symmetry_cell_setting            triclinic 
loop_ 
_symmetry_equiv_pos_as_xyz 
  x,y,z 
_cell_length_a                    40.89985374 
_cell_length_b                    40.92578569981452 
_cell_length_c                    29.162586741384285 
_cell_angle_alpha                 90.37166276433734 
_cell_angle_beta                  89.8583579388922 
_cell_angle_gamma                 120.02860939397405 
loop_ 
_atom_site_label 
_atom_site_type_symbol 
_atom_site_fract_x 
_atom_site_fract_y 
_atom_site_fract_z 
_atom_site_charge 
O1          O  0.48763118  0.59433760  0.39266585    -0.85800
O2          O  0.43921434  0.59558724  0.32946568    -0.82800
C3          C  0.46265685  0.61281450  0.29790897     0.97700
O4          O  0.47411968  0.59544042  0.27266146    -0.82800
O5          O  0.49668044  0.54365362  0.25186949    -0.85500
C6          C  0.52737198  0.55455620  0.27323664     1.02200
O7          O  0.52760687  0.55236802  0.31634872    -0.78200
O8          O  0.50584473  0.55292082  0.40530500    -0.78400
C9          C  0.50920249  0.58512176  0.41228239     1.02200
O10         O  0.43143535  0.52254248  0.42295682    -0.85800
O11         O  0.38540678  0.51939990  0.35223440    -0.82800
C12         C  0.37355356  0.52031345  0.31266070     0.97700
O13         O  0.39656782  0.53428298  0.27957988    -0.82800
O14         O  0.42121401  0.48316291  0.26609243    -0.85500
C15         C  0.43695642  0.46415657  0.27527698     1.02200
O16         O  0.46503491  0.47736469  0.30229905    -0.78300
O17         O  0.43874547  0.47907599  0.38892928    -0.78400
C18         C  0.42454077  0.48894914  0.42080702     1.02200
Cr19       Cr  0.43724263  0.55643631  0.37118139     1.93700
Cr20       Cr  0.44779557  0.53906141  0.27205183     1.93200
Cr21       Cr  0.48230799  0.51690421  0.35181423     1.39100
O22         O  0.45607467  0.53755751  0.33152619    -1.23500
O23         O  0.43946699  0.91794649  0.43110009    -0.85800
O24         O  0.38729692  0.87269224  0.36610568    -0.82800
C25         C  0.37245116  0.85841119  0.32794811     0.97700
O26         O  0.39271729  0.86701145  0.29213050    -0.82800
O27         O  0.42174285  0.94445631  0.27703672    -0.85500
C28         C  0.44268718  0.97974671  0.28242997     1.02200
O29         O  0.47200132  0.99263006  0.30728932    -0.78200
O30         O  0.44855911  0.96841711  0.39511143    -0.78400
C31         C  0.43359708  0.94530133  0.42747336     1.02200
O32         O  0.49080020  0.89607556  0.39378189    -0.85800
O33         O  0.43673698  0.84627933  0.33644100    -0.82800
C34         C  0.45759627  0.85060518  0.30235304     0.97700
O35         O  0.46755542  0.87827574  0.27592089    -0.82800
O36         O  0.49311324  0.95254799  0.25447073    -0.85500
C37         C  0.52576676  0.97164486  0.27178205     1.02200
O38         O  0.53019421  0.97394111  0.31487681    -0.78300
O39         O  0.51277052  0.95611762  0.40759589    -0.78400
C40         C  0.51519856  0.92654497  0.41187490     1.02200
Cr41       Cr  0.43986814  0.88603118  0.37887536     1.93700
Cr42       Cr  0.44453130  0.91120362  0.27930151     1.93200
Cr43       Cr  0.48866309  0.96933914  0.35536210     1.39100
O44         O  0.45773732  0.92228650  0.33763771    -1.23500
O45         O  0.08416406  0.49339000  0.40552875    -0.85800
O46         O  0.13946563  0.54416456  0.34914937    -0.82800
C47         C  0.13459419  0.52267280  0.31558730     0.97700
O48         O  0.10680660  0.51249552  0.28920886    -0.82800
O49         O  0.03399804  0.49101590  0.26441130    -0.85500
C50         C  0.01124240  0.46063564  0.28474855     1.02200
O51         O  0.00559182  0.46054512  0.32738811    -0.78200
O52         O  0.02561391  0.47978753  0.41778160    -0.78400
C53         C  0.05214707  0.47249544  0.42287293     1.02200
O54         O  0.07064895  0.55087448  0.43931516    -0.85800
O55         O  0.11902311  0.59891548  0.37354129    -0.82800
C56         C  0.13297611  0.61207021  0.33475173     0.97700
O57         O  0.12419437  0.59035976  0.29996075    -0.82800
O58         O  0.05026031  0.56745894  0.27975782    -0.85500
C59         C  0.01546177  0.55355415  0.28732605     1.02200
O60         O  0.99831098  0.52573100  0.31400521    -0.78300
O61         O  0.02457626  0.55026811  0.40164491    -0.78400
C62         C  0.04714292  0.56199863  0.43511544     1.02200
Cr63       Cr  0.10060005  0.54569200  0.38866427     1.93700
Cr64       Cr  0.07779762  0.53959350  0.28780851     1.93200
Cr65       Cr  0.01708338  0.50599172  0.36408519     1.39100
O66         O  0.06497018  0.53019438  0.34641253    -1.23500
O67         O  0.44419029  0.18374335  0.05424104    -0.85800
O68         O  0.49207172  0.23515079  0.99132769    -0.82800
C69         C  0.48805391  0.21470035  0.95676806     0.97700
O70         O  0.45745234  0.19926610  0.93464083    -0.82800
O71         O  0.38219310  0.17231528  0.91505032    -0.85500
C72         C  0.36428315  0.14081525  0.93499909     1.02200
O73         O  0.36174217  0.13936367  0.97822252    -0.78200
O74         O  0.38384468  0.16085442  0.06841603    -0.78400
C75         C  0.41438679  0.16029193  0.07450562     1.02200
O76         O  0.42340038  0.23623180  0.08720961    -0.85800
O77         O  0.46490926  0.28468240  0.01753856    -0.82800
C78         C  0.47804429  0.29701612  0.97825545     0.97700
O79         O  0.46877301  0.27443918  0.94449518    -0.82800
O80         O  0.39204271  0.24532016  0.93260373    -0.85500
C81         C  0.35718766  0.22736360  0.94165006     1.02200
O82         O  0.34377225  0.19880894  0.96778889    -0.78300
O83         O  0.37089382  0.22489412  0.05454952    -0.78400
C84         C  0.39538695  0.24121129  0.08550750     1.02200
Cr85       Cr  0.45312800  0.23332896  0.03460524     1.93700
Cr86       Cr  0.42432164  0.22204764  0.93627273     1.93200
Cr87       Cr  0.36852514  0.18313390  0.01593553     1.39100
O88         O  0.41513461  0.21257761  0.99548823    -1.23500
O89         O  0.81006153  0.22784670  0.09574538    -0.85800
O90         O  0.81979464  0.27957890  0.02930324    -0.82800
C91         C  0.82124148  0.29362701  0.99049029     0.97700
O92         O  0.80922709  0.27249812  0.95523619    -0.82800
O93         O  0.85511832  0.24120216  0.94288259    -0.85500
C94         C  0.86953107  0.22057372  0.94911481     1.02200
O95         O  0.85296123  0.19165250  0.97433093    -0.78200
O96         O  0.85183920  0.21838440  0.06091303    -0.78400
C97         C  0.84350825  0.23411667  0.09249189     1.02200
O98         O  0.73696369  0.17742178  0.05727372    -0.85800
O99         O  0.74398120  0.23254278  0.99865162    -0.82800
C100        C  0.72851354  0.21355350  0.96283608     0.97700
O101        O  0.74402822  0.19863710  0.94031405    -0.82800
O102        O  0.79064156  0.16970833  0.92158877    -0.85500
C103        C  0.77668216  0.13754733  0.94015044     1.02200
O104        O  0.77548297  0.13460300  0.98333108    -0.78300
O105        O  0.77436709  0.15517122  0.07390709    -0.78400
C106        C  0.74213744  0.15266238  0.07578001     1.02200
Cr107      Cr  0.77901684  0.22779787  0.04252745     1.93700
Cr108      Cr  0.79958807  0.21968304  0.94428871     1.93200
Cr109      Cr  0.81256772  0.17723469  0.02222918     1.39100
O110        O  0.79695209  0.20804637  0.00273671    -1.23500
O111        O  0.74423000  0.57732130  0.06794803    -0.85800
O112        O  0.74306360  0.52493955  0.00936189    -0.82800
C113        C  0.72593868  0.53083068  0.97756711     0.97700
O114        O  0.74336303  0.55927608  0.95226943    -0.82800
O115        O  0.79367538  0.63309037  0.93064825    -0.85500
C116        C  0.78468147  0.65435267  0.95255145     1.02200
O117        O  0.78869682  0.65806979  0.99551816    -0.78200
O118        O  0.78717778  0.63574912  0.08443710    -0.78400
C119        C  0.75343551  0.60842786  0.08691329     1.02200
O120        O  0.81563030  0.59267543  0.10292350    -0.85800
O121        O  0.81853894  0.54740644  0.03466848    -0.81000
C122        C  0.81827197  0.53439348  0.99526069     0.97700
O123        O  0.80534558  0.54361342  0.96109877    -0.82800
O124        O  0.85535712  0.61890879  0.94487600    -0.85500
C125        C  0.87491115  0.65369259  0.95398090     1.02200
O126        O  0.86262088  0.66912631  0.98151070    -0.78300
O127        O  0.86068868  0.64067195  0.06744750    -0.78400
C128        C  0.85013069  0.61701914  0.09948177     1.02200
Cr129      Cr  0.78191788  0.56336355  0.05085287     1.93700
Cr130      Cr  0.79961202  0.58949198  0.95152288     1.93200
Cr131      Cr  0.82335197  0.64746913  0.03099022     1.39100
O132        O  0.80172910  0.60032798  0.01068347    -1.23500
O133        O  0.75727992  0.85613733  0.76074207    -0.85800
O134        O  0.79930818  0.85057533  0.68976669    -0.82800
C135        C  0.81064268  0.85018789  0.64957484     0.97700
O136        O  0.80033589  0.86290887  0.61658420    -0.82800
O137        O  0.72465864  0.81204883  0.60809486    -0.85500
C138        C  0.68981256  0.79481954  0.61680728     1.02200
O139        O  0.67593605  0.80962862  0.64299364    -0.78200
O140        O  0.70555541  0.81267376  0.72815273    -0.78400
C141        C  0.73036744  0.82247841  0.75890956     1.02200
O142        O  0.77354485  0.92789305  0.72584191    -0.85800
O143        O  0.82163365  0.92574662  0.66231205    -0.82800
C144        C  0.81587300  0.94037582  0.62744335     0.97700
O145        O  0.78465257  0.92371692  0.60677314    -0.82800
O146        O  0.70972731  0.87173296  0.59017872    -0.85500
C147        C  0.69086706  0.88419063  0.61064584     1.02200
O148        O  0.69058177  0.88555398  0.65395988    -0.78300
O149        O  0.71466028  0.88759626  0.74361252    -0.78400
C150        C  0.74333032  0.92049214  0.74593237     1.02200
Cr151      Cr  0.78507187  0.88864103  0.70711254     1.93700
Cr152      Cr  0.75423279  0.86776583  0.60987154     1.93200
Cr153      Cr  0.70001452  0.85022193  0.69095458     1.39100
O154        O  0.74632226  0.86893985  0.66921247    -1.23500
O155        O  0.16552444  0.92856829  0.72494357    -0.85800
O156        O  0.11753363  0.92940469  0.66122621    -0.82800
C157        C  0.14210611  0.94570581  0.63055688     0.97700
O158        O  0.15368434  0.92751256  0.60733522    -0.82800
O159        O  0.17592910  0.87568712  0.59013895    -0.85500
C160        C  0.20565944  0.88604583  0.61348396     1.02200
O161        O  0.20388106  0.88217753  0.65651494    -0.78200
O162        O  0.18033495  0.88568210  0.74380332    -0.78400
C163        C  0.18692566  0.91948559  0.74519890     1.02200
O164        O  0.10700655  0.85798435  0.75894690    -0.85800
O165        O  0.06252371  0.85423849  0.68617836    -0.82800
C166        C  0.05153189  0.85354658  0.64561961     0.97700
O167        O  0.07526221  0.86702504  0.61306525    -0.82800
O168        O  0.09914289  0.81587021  0.60238844    -0.85500
C169        C  0.11254978  0.79546354  0.61459011     1.02200
O170        O  0.13971820  0.80779683  0.64290277    -0.78300
O171        O  0.11192531  0.81235497  0.72734797    -0.78400
C172        C  0.09788519  0.82364448  0.75784638     1.02200
Cr173      Cr  0.11442543  0.89093712  0.70512540     1.93700
Cr174      Cr  0.12648968  0.87143489  0.60769756     1.93200
Cr175      Cr  0.15711732  0.84847145  0.69102400     1.39100
O176        O  0.13281733  0.87015134  0.66766681    -1.23500
O177        O  0.06959894  0.21696731  0.71637084    -0.85800
O178        O  0.07511885  0.17169695  0.64978031    -0.82800
C179        C  0.05821255  0.17668311  0.61679172     0.97700
O180        O  0.07291028  0.20798826  0.59670014    -0.82800
O181        O  0.11969000  0.28361393  0.58102353    -0.85500
C182        C  0.10683155  0.30115778  0.60375307     1.02200
O183        O  0.10946930  0.30316576  0.64693962    -0.78200
O184        O  0.10780546  0.27677596  0.73373840    -0.78400
C185        C  0.07612950  0.24652888  0.73778794     1.02200
O186        O  0.14235862  0.23710997  0.74938633    -0.85800
O187        O  0.15165704  0.19964685  0.67611950    -0.82800
C188        C  0.15263627  0.18900550  0.63572120     0.97700
O189        O  0.13835553  0.19808852  0.60307047    -0.82800
O190        O  0.18399014  0.27448484  0.59441640    -0.85500
C191        C  0.20122200  0.30875079  0.60624867     1.02200
O192        O  0.18646198  0.32115622  0.63466628    -0.78300
O193        O  0.18479254  0.28974762  0.71867684    -0.78400
C194        C  0.17563183  0.26461631  0.74876600     1.02200
Cr195      Cr  0.11101299  0.20937368  0.69504136     1.93700
Cr196      Cr  0.12867699  0.24163259  0.59836436     1.93200
Cr197      Cr  0.14591251  0.29435366  0.68198993     1.39100
O198        O  0.12835712  0.24868911  0.65824646    -1.23500
C199        C  0.15691949  0.98613162  0.62356262    -0.01700
C200        C  0.15247021  0.99999511  0.58183806    -0.09700
C201        C  0.15974282  0.03717721  0.57881957    -0.18600
C202        C  0.17153531  0.06126730  0.61784752     0.03800
C203        C  0.17864352  0.04747871  0.65905800     0.18000
C204        C  0.17133573  0.01029558  0.66143640    -0.20000
C205        C  0.19073193  0.07000342  0.69857869    -0.21200
C206        C  0.19295834  0.10494379  0.69929633    -0.19800
C207        C  0.18314372  0.11805372  0.66049813     0.19400
C208        C  0.17394751  0.09732274  0.61859058     0.01500
C209        C  0.16506009  0.11246258  0.58028808    -0.14500
C210        C  0.16101009  0.14424706  0.58498661    -0.12200
C211        C  0.16631380  0.16217218  0.62765130     0.01100
C212        C  0.17980466  0.15039430  0.66441586    -0.24400
H213        H  0.14133734  0.98146131  0.55227540     0.09100
H214        H  0.15437755  0.04568317  0.54612301     0.12600
H215        H  0.17501706  0.99940893  0.69366188     0.11400
H216        H  0.19681000  0.05978525  0.72979155     0.12600
H217        H  0.20062396  0.12096911  0.73107556     0.11600
H218        H  0.15925547  0.09935760  0.54687576     0.08700
H219        H  0.15151482  0.15340855  0.55568000     0.11900
H220        H  0.18492270  0.16464963  0.69731880     0.13800
C221        C  0.84773714  0.97504806  0.60936348    -0.01700
C222        C  0.84657135  0.00846829  0.60544779    -0.09700
C223        C  0.87989255  0.04273401  0.59747348    -0.18600
C224        C  0.91515825  0.04411939  0.59362253     0.03800
C225        C  0.91510613  0.00933493  0.59432494     0.18000
C226        C  0.88162824  0.97545160  0.60191111    -0.20000
C227        C  0.94876590  0.00857716  0.59033469    -0.21200
C228        C  0.98308812  0.04189421  0.58913840    -0.19800
C229        C  0.98444250  0.07665376  0.59164097     0.19400
C230        C  0.95062620  0.07854600  0.59201227     0.01500
C231        C  0.95409683  0.11478176  0.59347169    -0.14500
C232        C  0.98955398  0.14740028  0.59819451    -0.12200
C233        C  0.02216242  0.14461117  0.60154256     0.01100
C234        C  0.01956275  0.10945184  0.59647009    -0.24400
H235        H  0.82034970  0.00840005  0.61111973     0.09100
H236        H  0.87745156  0.06774907  0.59643745     0.12600
H237        H  0.88221745  0.94929994  0.60460621     0.11400
H238        H  0.94866081  0.98203311  0.59019535     0.12600
H239        H  0.00882789  0.04043805  0.58809129     0.11600
H240        H  0.92990947  0.11866280  0.59275545     0.08700
H241        H  0.99127436  0.17456958  0.60196884     0.11900
H242        H  0.04502554  0.10749523  0.59859733     0.13800
C243        C  0.83886290  0.83840132  0.64125736    -0.01700
C244        C  0.85924844  0.84810940  0.60008922    -0.09700
C245        C  0.89032493  0.84312898  0.59456295    -0.18600
C246        C  0.90221767  0.82847660  0.63048163     0.03800
C247        C  0.87944373  0.81563390  0.67059696     0.18000
C248        C  0.84805953  0.82059326  0.67556686    -0.20000
C249        C  0.88940150  0.79998269  0.70668345    -0.21200
C250        C  0.92330240  0.79990445  0.70559950    -0.19800
C251        C  0.94799932  0.81566038  0.66851555     0.19400
C252        C  0.93714776  0.82857420  0.62945157     0.01500
C253        C  0.96300545  0.84358241  0.59258884    -0.14500
C254        C  0.99955361  0.84943158  0.59667096    -0.12200
C255        C  0.01116089  0.84003143  0.63716160     0.01100
C256        C  0.98455479  0.82106775  0.67175419    -0.24400
H257        H  0.85234573  0.86137774  0.57267533     0.09100
H258        H  0.90522911  0.85239370  0.56252202     0.12600
H259        H  0.83194359  0.81230334  0.70716801     0.11400
H260        H  0.87173661  0.78937328  0.73689937     0.12600
H261        H  0.93114537  0.78928418  0.73504385     0.11600
H262        H  0.95655528  0.85277736  0.56111190     0.08700
H263        H  0.01937170  0.86332088  0.56898125     0.11900
H264        H  0.99303390  0.81271637  0.70271094     0.13800
C265        C  0.77095081  0.67657231  0.92744909    -0.01700
C266        C  0.77392834  0.70915603  0.94751524    -0.09700
C267        C  0.76370718  0.73199481  0.92330430    -0.18600
C268        C  0.74975288  0.72281964  0.87794227     0.03800
C269        C  0.74480388  0.68863980  0.85858226     0.18000
C270        C  0.75582212  0.66618983  0.88311215    -0.20000
C271        C  0.72942927  0.67738423  0.81458060    -0.21200
C272        C  0.71986267  0.69988296  0.78880744    -0.19800
C273        C  0.72630772  0.73466506  0.80589413     0.19400
C274        C  0.74127826  0.74664344  0.85079795     0.01500
C275        C  0.74877125  0.78272812  0.86568522    -0.14500
C276        C  0.74348473  0.80654967  0.83641222    -0.12200
C277        C  0.72944567  0.79488077  0.79199035     0.01100
C278        C  0.71965491  0.75840263  0.77746822    -0.24400
H279        H  0.78517210  0.71766120  0.98186364     0.09100
H280        H  0.76714096  0.75667917  0.94107842     0.12600
H281        H  0.75275900  0.64066335  0.86757039     0.11400
H282        H  0.72512275  0.65115717  0.79979218     0.12600
H283        H  0.70845924  0.69055180  0.75464086     0.11600
H284        H  0.76037159  0.79410628  0.89899221     0.08700
H285        H  0.75134124  0.83471172  0.84817712     0.11900
H286        H  0.70939643  0.74951199  0.74276601     0.13800
C287        C  0.91171035  0.67725978  0.93056988    -0.01700
C288        C  0.92784405  0.66082891  0.90301397    -0.09700
C289        C  0.96075849  0.68326163  0.87777929    -0.18600
C290        C  0.97848943  0.72312702  0.87887117     0.03800
C291        C  0.96287390  0.73958364  0.90843695     0.18000
C292        C  0.93006834  0.71673584  0.93388564    -0.20000
C293        C  0.97945894  0.77882616  0.91158608    -0.21200
C294        C  0.01056631  0.80222914  0.88489568    -0.19800
C295        C  0.02572380  0.78699390  0.85405866     0.19400
C296        C  0.01036732  0.74728943  0.85089521     0.01500
C297        C  0.02680926  0.73367184  0.81869292    -0.14500
C298        C  0.05606027  0.75838774  0.78960266    -0.12200
C299        C  0.07018130  0.79741245  0.79194533     0.01100
C300        C  0.05538962  0.81141111  0.82521531    -0.24400
H301        H  0.91462932  0.63041845  0.90031478     0.09100
H302        H  0.97128322  0.66858118  0.85714270     0.12600
H303        H  0.91811406  0.72990786  0.95526649     0.11400
H304        H  0.96786508  0.79154571  0.93429952     0.12600
H305        H  0.02228976  0.83248977  0.88759262     0.11600
H306        H  0.01699078  0.70402174  0.81431786     0.08700
H307        H  0.06694429  0.74676173  0.76433735     0.11900
H308        H  0.06605112  0.84152521  0.82766354     0.13800
C309        C  0.04728190  0.24499558  0.76979910    -0.01700
C310        C  0.04354025  0.27673261  0.77772408    -0.09700
C311        C  0.01628003  0.27509661  0.80825382    -0.18600
C312        C  0.99234443  0.24165178  0.83269306     0.03800
C313        C  0.99705253  0.20986639  0.82522787     0.18000
C314        C  0.02375134  0.21160638  0.79348041    -0.20000
C315        C  0.97525860  0.17651664  0.84968185    -0.21200
C316        C  0.94842623  0.17377150  0.88110609    -0.19800
C317        C  0.94208711  0.20400896  0.88815209     0.19400
C318        C  0.96388072  0.23842865  0.86408848     0.01500
C319        C  0.95550514  0.26765281  0.87174331    -0.14500
C320        C  0.92587043  0.26234323  0.90061815    -0.12200
C321        C  0.90403820  0.22810827  0.92353240     0.01100
C322        C  0.91309166  0.19946118  0.91801462    -0.24400
H323        H  0.06149971  0.30282814  0.75979816     0.09100
H324        H  0.01493014  0.30057800  0.81237860     0.12600
H325        H  0.02687173  0.18706896  0.78797576     0.11400
H326        H  0.97899217  0.15233874  0.84446494     0.12600
H327        H  0.93193549  0.14747346  0.89934526     0.11600
H328        H  0.97056950  0.29453912  0.85481490     0.08700
H329        H  0.91951392  0.28493802  0.90426025     0.11900
H330        H  0.89624652  0.17269533  0.93522085     0.13800
C331        C  0.76507129  0.10421543  0.90996438    -0.01700
C332        C  0.77588695  0.11027248  0.86376432    -0.09700
C333        C  0.76969816  0.08054467  0.83504388    -0.18600
C334        C  0.75225182  0.04322440  0.85144219     0.03800
C335        C  0.73839878  0.03643636  0.89717336     0.18000
C336        C  0.74546065  0.06698587  0.92634107    -0.20000
C337        C  0.71814490  0.99930756  0.91336499    -0.21200
C338        C  0.71216127  0.96898721  0.88535123    -0.19800
C339        C  0.72767177  0.97517874  0.84115637     0.19400
C340        C  0.74842066  0.01256851  0.82397099     0.01500
C341        C  0.76608348  0.01805987  0.78078084    -0.14500
C342        C  0.76335372  0.98780276  0.75577069    -0.12200
C343        C  0.74248635  0.95095162  0.77221528     0.01100
C344        C  0.72395786  0.94453120  0.81459820    -0.24400
H345        H  0.79038114  0.13849344  0.84968531     0.09100
H346        H  0.77879641  0.08779688  0.80005495     0.12600
H347        H  0.73616784  0.06183336  0.96173658     0.11400
H348        H  0.70690028  0.99367722  0.94791758     0.12600
H349        H  0.69639411  0.94063785  0.89889390     0.11600
H350        H  0.78358763  0.04552508  0.76611294     0.08700
H351        H  0.77811477  0.99336852  0.72329505     0.11900
H352        H  0.70841274  0.91606367  0.82787466     0.13800
C353        C  0.82983028  0.50555615  0.99025509    -0.01700
C354        C  0.84681960  0.49778744  0.02707454    -0.09700
C355        C  0.85210428  0.46665018  0.02585510    -0.18600
C356        C  0.83998143  0.44176504  0.98777735     0.03800
C357        C  0.82512210  0.45122853  0.94927185     0.18000
C358        C  0.82051852  0.48302428  0.95068670    -0.20000
C359        C  0.81327939  0.42793609  0.91036769    -0.21200
C360        C  0.81408963  0.39440220  0.90966560    -0.19800
C361        C  0.82654906  0.38322702  0.94795576     0.19400
C362        C  0.84043756  0.40705800  0.98726198     0.01500
C363        C  0.85226938  0.39411323  0.02516209    -0.14500
C364        C  0.84806926  0.35808329  0.02511021    -0.12200
C365        C  0.83260410  0.33401850  0.98712704     0.01100
C366        C  0.82332452  0.34742331  0.94799132    -0.24400
H367        H  0.85498788  0.51517782  0.05775481     0.09100
H368        H  0.86475725  0.46226299  0.05582305     0.12600
H369        H  0.80765268  0.48894145  0.92183059     0.11400
H370        H  0.80227455  0.43515818  0.88073837     0.12600
H371        H  0.80368631  0.37645791  0.87950194     0.11600
H372        H  0.86352013  0.41052415  0.05608416     0.08700
H373        H  0.85571314  0.34852269  0.05567946     0.11900
H374        H  0.81121717  0.32902592  0.91842293     0.13800
C375        C  0.33133662  0.23829944  0.91945874    -0.01700
C376        C  0.29344832  0.22142087  0.93300383    -0.09700
C377        C  0.26789786  0.22844163  0.90943990    -0.18600
C378        C  0.27926333  0.25240521  0.87078505     0.03800
C379        C  0.31807767  0.27092478  0.85843868     0.18000
C380        C  0.34363527  0.26392319  0.88284310    -0.20000
C381        C  0.33094080  0.29548746  0.82097116    -0.21200
C382        C  0.30589848  0.30114215  0.79452876    -0.19800
C383        C  0.26724394  0.28217318  0.80459398     0.19400
C384        C  0.25342826  0.25783201  0.84321735     0.01500
C385        C  0.21413282  0.23887371  0.85150855    -0.14500
C386        C  0.18956733  0.24265476  0.82180951    -0.12200
C387        C  0.20303457  0.26579635  0.78303831     0.01100
C388        C  0.24212042  0.28629345  0.77529507    -0.24400
H389        H  0.28323038  0.20205550  0.96159154     0.09100
H390        H  0.23928096  0.21413240  0.92195738     0.12600
H391        H  0.37292799  0.27745741  0.87214690     0.11400
H392        H  0.36053565  0.30995293  0.81153134     0.12600
H393        H  0.31674421  0.31982893  0.76530991     0.11600
H394        H  0.20125464  0.21998941  0.87993486     0.08700
H395        H  0.15954901  0.22654067  0.82877930     0.11900
H396        H  0.25285309  0.30398079  0.74518534     0.13800
C397        C  0.34475658  0.10614470  0.90630421    -0.01700
C398        C  0.34695739  0.10941911  0.85839374    -0.09700
C399        C  0.32563295  0.07833385  0.83017133    -0.18600
C400        C  0.30093966  0.04254561  0.84892724     0.03800
C401        C  0.30110716  0.03844879  0.89729559     0.18000
C402        C  0.32271636  0.07020733  0.92555635    -0.20000
C403        C  0.27885707  0.00289291  0.91709188    -0.21200
C404        C  0.25524882  0.97166604  0.89005707    -0.19800
C405        C  0.25239998  0.97547468  0.84275525     0.19400
C406        C  0.27533806  0.01103344  0.82150049     0.01500
C407        C  0.26999887  0.01415876  0.77417440    -0.14500
C408        C  0.24202691  0.98376461  0.74960269    -0.12200
C409        C  0.21933083  0.94900254  0.77072020     0.01100
C410        C  0.22533169  0.94450434  0.81693340    -0.24400
H411        H  0.36459124  0.13649921  0.84231145     0.09100
H412        H  0.32892312  0.08337203  0.79380656     0.12600
H413        H  0.32148627  0.06708556  0.96250663     0.11400
H414        H  0.27925445  0.99931628  0.95383872     0.12600
H415        H  0.23795949  0.94468850  0.90654127     0.11600
H416        H  0.28558814  0.04015744  0.75561049     0.08700
H417        H  0.23751948  0.98766691  0.71390370     0.11900
H418        H  0.20723882  0.91770313  0.83344170     0.13800
C419        C  0.68546456  0.50405322  0.97186218    -0.01700
C420        C  0.66178566  0.49667001  0.00970852    -0.09700
C421        C  0.62473893  0.46678068  0.00899007    -0.18600
C422        C  0.61049530  0.44241721  0.97055659     0.03800
C423        C  0.63438352  0.45088069  0.93152295     0.18000
C424        C  0.67135910  0.48203373  0.93218977    -0.20000
C425        C  0.62197548  0.42696628  0.89317117    -0.21200
C426        C  0.58721787  0.39375010  0.89362791    -0.19800
C427        C  0.56376786  0.38393296  0.93219364     0.19400
C428        C  0.57442037  0.40876314  0.97056559     0.01500
C429        C  0.54922413  0.39790406  0.00814415    -0.14500
C430        C  0.51667590  0.36246169  0.00930837    -0.12200
C431        C  0.50776574  0.33695414  0.97285690     0.01100
C432        C  0.53057797  0.34855917  0.93352275    -0.24400
H433        H  0.67247137  0.51349605  0.04069755     0.09100
H434        H  0.60864328  0.46253775  0.03990848     0.12600
H435        H  0.69000531  0.48749571  0.90316286     0.11400
H436        H  0.63989487  0.43325806  0.86326124     0.12600
H437        H  0.57907404  0.37510722  0.86407478     0.11600
H438        H  0.55435251  0.41567308  0.03779951     0.08700
H439        H  0.49915349  0.35446528  0.03973470     0.11900
H440        H  0.52382148  0.32914657  0.90492744     0.13800
C441        C  0.52063271  0.21132754  0.94196446    -0.01700
C442        C  0.51882825  0.17632819  0.94030079    -0.09700
C443        C  0.55192240  0.17431742  0.93580273    -0.18600
C444        C  0.58777425  0.20755853  0.93292899     0.03800
C445        C  0.58872818  0.24276731  0.93132692     0.18000
C446        C  0.55539206  0.24426998  0.93590482    -0.20000
C447        C  0.62312425  0.27653788  0.92770542    -0.21200
C448        C  0.65698975  0.27646329  0.92896290    -0.19800
C449        C  0.65722061  0.24260608  0.93376013     0.19400
C450        C  0.62274719  0.20747607  0.93408758     0.01500
C451        C  0.62496465  0.17412204  0.93796160    -0.14500
C452        C  0.65977709  0.17591279  0.94439072    -0.12200
C453        C  0.69308002  0.21079433  0.94719476     0.01100
C454        C  0.69178119  0.24390607  0.94053318    -0.24400
H455        H  0.49205827  0.15060438  0.94509647     0.09100
H456        H  0.54870110  0.14654926  0.93638931     0.12600
H457        H  0.55663275  0.27138369  0.93698890     0.11400
H458        H  0.62389438  0.30335610  0.92568805     0.12600
H459        H  0.68321153  0.30321839  0.92786585     0.11600
H460        H  0.60028032  0.14641139  0.93763643     0.08700
H461        H  0.66045348  0.15006280  0.94958810     0.11900
H462        H  0.71775171  0.27091898  0.94246916     0.13800
C463        C  0.87731375  0.61595950  0.13205482    -0.01700
C464        C  0.91616238  0.63523652  0.12307716    -0.09700
C465        C  0.94084663  0.62899827  0.14994981    -0.18600
C466        C  0.92722999  0.60298260  0.18666517     0.03800
C467        C  0.88807183  0.58523260  0.19704173     0.18000
C468        C  0.86376548  0.59191228  0.17000839    -0.20000
C469        C  0.87299822  0.55987534  0.23347017    -0.21200
C470        C  0.89578613  0.55077827  0.25917995    -0.19800
C471        C  0.93413193  0.56651432  0.24883082     0.19400
C472        C  0.95063139  0.59313072  0.21274662     0.01500
C473        C  0.98947606  0.60768948  0.20360814    -0.14500
C474        C  0.01064491  0.59557676  0.22849356    -0.12200
C475        C  0.99394411  0.56871629  0.26335630     0.01100
C476        C  0.95578905  0.55488833  0.27374197    -0.24400
H477        H  0.92736440  0.65407797  0.09406256     0.09100
H478        H  0.97025292  0.64430724  0.14053744     0.12600
H479        H  0.83379858  0.57711557  0.17764407     0.11400
H480        H  0.84320167  0.54648085  0.24167982     0.12600
H481        H  0.88310784  0.53060727  0.28676235     0.11600
H482        H  0.00412006  0.62787218  0.17683802     0.08700
H483        H  0.04007521  0.60675702  0.21968332     0.11900
H484        H  0.94251774  0.53421977  0.30072565     0.13800
C485        C  0.87283269  0.26190512  0.12368807    -0.01700
C486        C  0.90830855  0.28810922  0.10624701    -0.09700
C487        C  0.93363345  0.31935410  0.13246332    -0.18600
C488        C  0.92431142  0.32509043  0.17744629     0.03800
C489        C  0.88958197  0.29661787  0.19624460     0.18000
C490        C  0.86402438  0.26580980  0.16911470    -0.20000
C491        C  0.88000517  0.29969743  0.24153511    -0.21200
C492        C  0.90350448  0.33116008  0.26811633    -0.19800
C493        C  0.93664322  0.36087564  0.24968450     0.19400
C494        C  0.94762480  0.35831266  0.20408056     0.01500
C495        C  0.98055236  0.38978915  0.18658024    -0.14500
C496        C  0.00115219  0.42257697  0.21290573    -0.12200
C497        C  0.99017428  0.42503791  0.25780869     0.01100
C498        C  0.95820720  0.39366771  0.27619171    -0.24400
H499        H  0.91567560  0.28559766  0.07119782     0.09100
H500        H  0.96002944  0.33879896  0.11637164     0.12600
H501        H  0.83673016  0.24534881  0.18293072     0.11400
H502        H  0.85388685  0.27782373  0.25633785     0.12600
H503        H  0.89503514  0.33281172  0.30291198     0.11600
H504        H  0.99048906  0.39037058  0.15216673     0.08700
H505        H  0.02575770  0.44627130  0.19782238     0.11900
H506        H  0.94922947  0.39522204  0.31076300     0.13800
C507        C  0.09738566  0.75723748  0.59428871    -0.01700
C508        C  0.11025729  0.73333487  0.60978690    -0.09700
C509        C  0.09841265  0.69844777  0.58879839    -0.18600
C510        C  0.07338595  0.68628472  0.55095012     0.03800
C511        C  0.05917146  0.70990828  0.53645661     0.18000
C512        C  0.07102381  0.74483674  0.55828211    -0.20000
C513        C  0.03411036  0.69905709  0.49935637    -0.21200
C514        C  0.02419263  0.66604839  0.47493420    -0.19800
C515        C  0.03907069  0.64304060  0.48697252     0.19400
C516        C  0.06313198  0.65233881  0.52590389     0.01500
C517        C  0.07712561  0.62803477  0.53688835    -0.14500
C518        C  0.06986915  0.59755157  0.50865575    -0.12200
C519        C  0.04804999  0.58974761  0.46876360     0.01100
C520        C  0.03147466  0.61175495  0.45910008    -0.24400
H521        H  0.13014196  0.74186499  0.63794872     0.09100
H522        H  0.11004228  0.68204951  0.60253014     0.12600
H523        H  0.06055874  0.76290682  0.54617061     0.11400
H524        H  0.02284700  0.71672703  0.48840014     0.12600
H525        H  0.00555576  0.65901246  0.44561713     0.11600
H526        H  0.09480486  0.63241830  0.56629171     0.08700
H527        H  0.08262476  0.58072542  0.51737230     0.11900
H528        H  0.01449015  0.60593687  0.42838194     0.13800
C529        C  0.09000017  0.32054726  0.57858255    -0.01700
C530        C  0.08178971  0.31309421  0.53176164    -0.09700
C531        C  0.06927283  0.33336397  0.50618111    -0.18600
C532        C  0.06499197  0.36244705  0.52648976     0.03800
C533        C  0.07187962  0.36897280  0.57440541     0.18000
C534        C  0.08383015  0.34777922  0.60001401    -0.20000
C535        C  0.06824467  0.39761147  0.59609364    -0.21200
C536        C  0.05976915  0.42118058  0.57086277    -0.19800
C537        C  0.05446002  0.41653268  0.52334569     0.19400
C538        C  0.05589354  0.38639227  0.50062762     0.01500
C539        C  0.05004766  0.38275336  0.45259796    -0.14500
C540        C  0.04619999  0.40968117  0.42786146    -0.12200
C541        C  0.04689767  0.44028442  0.45016022     0.01100
C542        C  0.04971135  0.44301431  0.49798626    -0.24400
H543        H  0.08568261  0.29180033  0.51441042     0.09100
H544        H  0.06417649  0.32617191  0.47031843     0.12600
H545        H  0.08989134  0.35366109  0.63627334     0.11400
H546        H  0.07314272  0.40257877  0.63264219     0.12600
H547        H  0.05840224  0.44386953  0.58845932     0.11600
H548        H  0.04977388  0.36031028  0.43282551     0.08700
H549        H  0.04423952  0.40746777  0.39079419     0.11900
H550        H  0.05075249  0.46713578  0.51507587     0.13800
C551        C  0.41685268  0.13404397  0.10753336    -0.01700
C552        C  0.45189506  0.14468744  0.12765841    -0.09700
C553        C  0.45623000  0.12114758  0.15824069    -0.18600
C554        C  0.42553686  0.08537577  0.16966326     0.03800
C555        C  0.38999320  0.07412910  0.14885001     0.18000
C556        C  0.38573346  0.09875942  0.11873751    -0.20000
C557        C  0.35927254  0.03811325  0.15760535    -0.21200
C558        C  0.36333733  0.01282106  0.18564981    -0.19800
C559        C  0.39796388  0.02318233  0.20679173     0.19400
C560        C  0.42922392  0.06007240  0.20005294     0.01500
C561        C  0.46297886  0.07009288  0.22393653    -0.14500
C562        C  0.46615949  0.04419262  0.25152377    -0.12200
C563        C  0.43609467  0.00712915  0.25642822     0.01100
C564        C  0.40175830  0.99688164  0.23427900    -0.24400
H565        H  0.47641940  0.17173703  0.11984227     0.09100
H566        H  0.48429893  0.13156443  0.17147289     0.12600
H567        H  0.35856727  0.09003693  0.10303378     0.11400
H568        H  0.33206193  0.02913919  0.14190473     0.12600
H569        H  0.33918828  0.98494154  0.19085732     0.11600
H570        H  0.48756135  0.09780586  0.22220718     0.08700
H571        H  0.49302396  0.05319099  0.26817317     0.11900
H572        H  0.37814199  0.96847243  0.23815198     0.13800
C573        C  0.71029053  0.12164332  0.10063763    -0.01700
C574        C  0.67329322  0.11102122  0.08786620    -0.09700
C575        C  0.64252504  0.08402502  0.11258109    -0.18600
C576        C  0.64774410  0.06705972  0.15185379     0.03800
C577        C  0.68531952  0.07765345  0.16461487     0.18000
C578        C  0.71615425  0.10415220  0.13840675    -0.20000
C579        C  0.69189890  0.06277735  0.20438695    -0.21200
C580        C  0.66207849  0.03886944  0.23280887    -0.19800
C581        C  0.62481156  0.02833084  0.22150224     0.19400
C582        C  0.61707990  0.04117384  0.17988610     0.01500
C583        C  0.57896680  0.02799466  0.16840649    -0.14500
C584        C  0.54998399  0.00480250  0.19804301    -0.12200
C585        C  0.55765985  0.99394546  0.24032289     0.01100
C586        C  0.59518525  0.00541710  0.25171680    -0.24400
H587        H  0.66804157  0.12402195  0.05867028     0.09100
H588        H  0.61515463  0.07813487  0.10089866     0.12600
H589        H  0.74474282  0.11250876  0.14871081     0.11400
H590        H  0.72041568  0.07060120  0.21433066     0.12600
H591        H  0.66825207  0.02876563  0.26404015     0.11600
H592        H  0.57048419  0.03501230  0.13676816     0.08700
H593        H  0.52123681  0.99614855  0.18815428     0.11900
H594        H  0.60129822  0.99655700  0.28397973     0.13800
C595        C  0.40685291  0.94793268  0.45924448    -0.01700
C596        C  0.40641226  0.93960572  0.50579546    -0.09700
C597        C  0.37664692  0.93475714  0.53412004    -0.18600
C598        C  0.34539958  0.93641380  0.51606899     0.03800
C599        C  0.34645320  0.94550745  0.46885801     0.18000
C600        C  0.37753531  0.95230635  0.44144262    -0.20000
C601        C  0.31547988  0.94548281  0.44855645    -0.21200
C602        C  0.28265273  0.93476305  0.47346501    -0.19800
C603        C  0.28037130  0.92491194  0.51972263     0.19400
C604        C  0.31220625  0.92711079  0.54225227     0.01500
C605        C  0.30894010  0.91886735  0.58965959    -0.14500
C606        C  0.27476497  0.90655054  0.61284596    -0.12200
C607        C  0.24268001  0.90187894  0.58968878     0.01100
C608        C  0.24607674  0.91206279  0.54329903    -0.24400
H609        H  0.42868082  0.93573150  0.52000975     0.09100
H610        H  0.37788377  0.92765476  0.56935769     0.12600
H611        H  0.37736976  0.95785582  0.40512673     0.11400
H612        H  0.31607537  0.95234132  0.41260059     0.12600
H613        H  0.25867765  0.93366365  0.45623316     0.11600
H614        H  0.33226215  0.92150730  0.60968808     0.08700
H615        H  0.27327820  0.89981096  0.64892076     0.11900
H616        H  0.22179739  0.90957758  0.52521666     0.13800
C617        C  0.54537727  0.92623257  0.43938744    -0.01700
C618        C  0.56095672  0.94948220  0.47798553    -0.09700
C619        C  0.58609967  0.94528522  0.50667702    -0.18600
C620        C  0.59664660  0.91780448  0.49713711     0.03800
C621        C  0.58204694  0.89573227  0.45653265     0.18000
C622        C  0.55660675  0.89991512  0.42859848    -0.20000
C623        C  0.59233645  0.86903712  0.44422371    -0.21200
C624        C  0.61665291  0.86337874  0.47164442    -0.19800
C625        C  0.63060750  0.88367338  0.51255307     0.19400
C626        C  0.62075116  0.91102719  0.52631049     0.01500
C627        C  0.63473284  0.92949302  0.56908255    -0.14500
C628        C  0.65726925  0.92081135  0.59695359    -0.12200
C629        C  0.66716356  0.89421247  0.58253462     0.01100
C630        C  0.65390738  0.87608251  0.54014791    -0.24400
H631        H  0.55264649  0.97002715  0.48692158     0.09100
H632        H  0.59662584  0.96370590  0.53616619     0.12600
H633        H  0.54505006  0.88215760  0.39839323     0.11400
H634        H  0.58137556  0.85228801  0.41320333     0.12600
H635        H  0.62405736  0.84243573  0.46116827     0.11600
H636        H  0.62816076  0.95022228  0.58219881     0.08700
H637        H  0.66726218  0.93516234  0.62960867     0.11900
H638        H  0.66096262  0.85501138  0.52899279     0.13800
C639        C  0.16200269  0.65253688  0.33103220    -0.01700
C640        C  0.17180126  0.67617379  0.36966199    -0.09700
C641        C  0.20268807  0.71275217  0.36871726    -0.18600
C642        C  0.22524153  0.72692432  0.32897142     0.03800
C643        C  0.21370693  0.70377761  0.28894262     0.18000
C644        C  0.18223570  0.66710818  0.29022309    -0.20000
C645        C  0.23461819  0.71673442  0.24841613    -0.21200
C646        C  0.26793536  0.75135769  0.24741928    -0.19800
C647        C  0.28122768  0.77382146  0.28696303     0.19400
C648        C  0.25962985  0.76241358  0.32804048     0.01500
C649        C  0.27437831  0.78618512  0.36696805    -0.14500
C650        C  0.31006891  0.81846189  0.36597209    -0.12200
C651        C  0.33216021  0.82848839  0.32614040     0.01100
C652        C  0.31688748  0.80674639  0.28624979    -0.24400
H653        H  0.15623735  0.66597653  0.40142586     0.09100
H654        H  0.20872252  0.72880137  0.40009792     0.12600
H655        H  0.17464267  0.64928707  0.25991506     0.11400
H656        H  0.22574685  0.69946358  0.21761405     0.12600
H657        H  0.28405940  0.76005347  0.21586051     0.11600
H658        H  0.25965846  0.77998389  0.39925597     0.08700
H659        H  0.32097095  0.83488254  0.39719348     0.11900
H660        H  0.33364071  0.81422386  0.25515578     0.13800
C661        C  0.72420493  0.61131513  0.11296441    -0.01700
C662        C  0.73009996  0.62397238  0.15844066    -0.09700
C663        C  0.69960235  0.61880961  0.18564335    -0.18600
C664        C  0.66239609  0.60092429  0.16766790     0.03800
C665        C  0.65751672  0.59111799  0.12030496     0.18000
C666        C  0.68818519  0.59608506  0.09375421    -0.20000
C667        C  0.62181518  0.57501240  0.09998853    -0.21200
C668        C  0.59036321  0.56716465  0.12606070    -0.19800
C669        C  0.59376601  0.57442549  0.17324664     0.19400
C670        C  0.62974486  0.59145200  0.19491048     0.01500
C671        C  0.63111400  0.59674183  0.24304520    -0.14500
C672        C  0.59805045  0.58508598  0.26847369    -0.12200
C673        C  0.56275028  0.56835429  0.24673856     0.01100
C674        C  0.56103710  0.56365763  0.19901351    -0.24400
H675        H  0.75791155  0.63590853  0.17368168     0.09100
H676        H  0.70584167  0.62835043  0.22073896     0.12600
H677        H  0.68380100  0.58668871  0.05825373     0.11400
H678        H  0.61809815  0.56788847  0.06377965     0.12600
H679        H  0.56299638  0.55427606  0.10941888     0.11600
H680        H  0.65717640  0.60891384  0.26210738     0.08700
H681        H  0.60014171  0.58901357  0.30533959     0.11900
H682        H  0.53388829  0.55047004  0.18178383     0.13800
C683        C  0.39306227  0.26735356  0.11935573    -0.01700
C684        C  0.36786179  0.28089623  0.11391731    -0.09700
C685        C  0.37049917  0.31017815  0.14199874    -0.18600
C686        C  0.39888808  0.32714453  0.17615333     0.03800
C687        C  0.42302753  0.31188777  0.18273908     0.18000
C688        C  0.41960247  0.28223155  0.15502244    -0.20000
C689        C  0.45169965  0.32728093  0.21571499    -0.21200
C690        C  0.45804746  0.35859174  0.24127862    -0.19800
C691        C  0.43577058  0.37522859  0.23473171     0.19400
C692        C  0.40532953  0.35944988  0.20284216     0.01500
C693        C  0.38371202  0.37755665  0.19822747    -0.14500
C694        C  0.39319910  0.41086743  0.22255645    -0.12200
C695        C  0.42423235  0.42701482  0.25254947     0.01100
C696        C  0.44467620  0.40831588  0.25914142    -0.24400
H697        H  0.34699014  0.26986949  0.08675209     0.09100
H698        H  0.35077172  0.31975986  0.13525283     0.12600
H699        H  0.43907354  0.27185435  0.16004074     0.11400
H700        H  0.47004524  0.31561002  0.22095934     0.12600
H701        H  0.48112299  0.37036831  0.26573942     0.11600
H702        H  0.35980104  0.36703397  0.17542023     0.08700
H703        H  0.37657132  0.42440452  0.21716471     0.11900
H704        H  0.46857599  0.42020270  0.28242376     0.13800
C705        C  0.53649539  0.61149806  0.44599403    -0.01700
C706        C  0.57343153  0.61800399  0.44865082    -0.09700
C707        C  0.59951042  0.64536933  0.47888409    -0.18600
C708        C  0.58887471  0.66639337  0.50792767     0.03800
C709        C  0.55058096  0.65768020  0.50669892     0.18000
C710        C  0.52520414  0.63104737  0.47547119    -0.20000
C711        C  0.53776152  0.67590484  0.53620090    -0.21200
C712        C  0.56242866  0.70356127  0.56628604    -0.19800
C713        C  0.60070519  0.71439832  0.56662580     0.19400
C714        C  0.61467389  0.69607734  0.53759873     0.01500
C715        C  0.65397767  0.70940656  0.53831465    -0.14500
C716        C  0.67836748  0.74058914  0.56533156    -0.12200
C717        C  0.66428006  0.75885992  0.59307992     0.01100
C718        C  0.62527855  0.74472383  0.59454145    -0.24400
H719        H  0.58243221  0.60272740  0.42634170     0.09100
H720        H  0.62766857  0.64944969  0.47881591     0.12600
H721        H  0.49630509  0.62536880  0.47410751     0.11400
H722        H  0.50846578  0.66893442  0.53574195     0.12600
H723        H  0.55169795  0.71744170  0.58841220     0.11600
H724        H  0.66681825  0.69727612  0.51707304     0.08700
H725        H  0.70845367  0.75099874  0.56357627     0.11900
H726        H  0.61402443  0.75870823  0.61564869     0.13800
C727        C  0.39874377  0.46190718  0.45536317    -0.01700
C728        C  0.38898285  0.47557690  0.49420897    -0.09700
C729        C  0.35988195  0.45123922  0.52316592    -0.18600
C730        C  0.33902208  0.41209904  0.51393719     0.03800
C731        C  0.35063545  0.39801389  0.47626361     0.18000
C732        C  0.38045464  0.42288302  0.44764778    -0.20000
C733        C  0.33134710  0.35936467  0.46620267    -0.21200
C734        C  0.29980152  0.33455609  0.49150745    -0.19800
C735        C  0.28662447  0.34778643  0.52739607     0.19400
C736        C  0.30634004  0.38666068  0.53965947     0.01500
C737        C  0.29160562  0.39852337  0.57599310    -0.14500
C738        C  0.25810656  0.37310467  0.59805075    -0.12200
C739        C  0.23824719  0.33498064  0.58508503     0.01100
C740        C  0.25317053  0.32244758  0.55024064    -0.24400
H741        H  0.40311981  0.50557359  0.50153833     0.09100
H742        H  0.35379833  0.46414202  0.55175413     0.12600
H743        H  0.38792101  0.41200164  0.41785664     0.11400
H744        H  0.34019037  0.34833861  0.43785220     0.12600
H745        H  0.28504566  0.30490099  0.48219514     0.11600
H746        H  0.30480318  0.42740451  0.58759857     0.08700
H747        H  0.24740885  0.38357948  0.62497342     0.11900
H748        H  0.23815546  0.29301389  0.53986754     0.13800
C749        C  0.47015219  0.82286956  0.29544594    -0.01700
C750        C  0.46970007  0.80725139  0.25246181    -0.09700
C751        C  0.47576188  0.77643679  0.24884200    -0.18600
C752        C  0.48240865  0.76057735  0.28839589     0.03800
C753        C  0.48563155  0.77878105  0.33124736     0.18000
C754        C  0.47977025  0.80955839  0.33419113    -0.20000
C755        C  0.49246724  0.76491277  0.37157711    -0.21200
C756        C  0.49317441  0.73144336  0.37106078    -0.19800
C757        C  0.48750919  0.71136185  0.33010524     0.19400
C758        C  0.48370324  0.72622787  0.28777411     0.01500
C759        C  0.47923342  0.70483980  0.24740078    -0.14500
C760        C  0.47518975  0.66871517  0.24974943    -0.12200
C761        C  0.47557637  0.65324172  0.29224057     0.01100
C762        C  0.48345377  0.67538679  0.33183581    -0.24400
H763        H  0.46273254  0.81756409  0.22204142     0.09100
H764        H  0.47361773  0.76469562  0.21503399     0.12600
H765        H  0.48094312  0.82222176  0.36741457     0.11400
H766        H  0.49556634  0.77914334  0.40413115     0.12600
H767        H  0.49673794  0.72045155  0.40322842     0.11600
H768        H  0.47731922  0.71470281  0.21386707     0.08700
H769        H  0.46945530  0.65202667  0.21872242     0.11900
H770        H  0.48442202  0.66361360  0.36471966     0.13800
C771        C  0.16213564  0.51007942  0.30875001    -0.01700
C772        C  0.17156790  0.49552927  0.34640290    -0.09700
C773        C  0.20210979  0.48951534  0.34456505    -0.18600
C774        C  0.22511679  0.49907012  0.30508282     0.03800
C775        C  0.21478548  0.51288059  0.26629191     0.18000
C776        C  0.18282924  0.51739807  0.26806369    -0.20000
C777        C  0.23779299  0.52434711  0.22724146    -0.21200
C778        C  0.27214397  0.52491196  0.22713446    -0.19800
C779        C  0.28379988  0.51308755  0.26564030     0.19400
C780        C  0.25948291  0.49810982  0.30414409     0.01500
C781        C  0.27148683  0.48451409  0.34110347    -0.14500
C782        C  0.30781368  0.48979245  0.34225755    -0.12200
C783        C  0.33317659  0.50813413  0.30640420     0.01100
C784        C  0.32035631  0.51790158  0.26701255    -0.24400
H785        H  0.15585454  0.48994206  0.37815645     0.09100
H786        H  0.20810635  0.47935351  0.37558368     0.12600
H787        H  0.17584409  0.52933274  0.23917722     0.11400
H788        H  0.23005799  0.53466630  0.19741994     0.12600
H789        H  0.29019906  0.53570365  0.19726295     0.11600
H790        H  0.25385140  0.47051311  0.37023706     0.08700
H791        H  0.31653176  0.48070850  0.37235269     0.11900
H792        H  0.33951126  0.53135355  0.23857496     0.13800
loop_ 
_geom_bond_atom_site_label_1 
_geom_bond_atom_site_label_2 
_geom_bond_distance 
_geom_bond_site_symmetry_2 
_ccdc_geom_bond_type 
O1          Cr19   1.960       .  S
O1            C9   1.259       .  A
O2          Cr19   1.987       .  S
O2            C3   1.261       .  A
C3            O4   1.262       .  A
C3          C761   1.474       .  S
O4          Cr20   1.999       .  S
O5          Cr20   2.000       .  S
O5            C6   1.266       .  A
C6            O7   1.261       .  A
C6          C673   1.481       .  S
O7          Cr21   1.982       .  S
O8          Cr21   2.022       .  S
O8            C9   1.270       .  A
C9          C705   1.471       .  S
O10         Cr19   1.989       .  S
O10          C18   1.259       .  A
O11         Cr19   1.969       .  S
O11          C12   1.261       .  A
C12          O13   1.268       .  A
C12         C783   1.478       .  S
O13         Cr20   2.016       .  S
O14         Cr20   1.988       .  S
O14          C15   1.263       .  A
C15          O16   1.269       .  A
C15         C695   1.489       .  S
O16         Cr21   2.008       .  S
O17         Cr21   1.999       .  S
O17          C18   1.262       .  A
C18         C727   1.481       .  S
Cr19         O22   1.763       .  S
Cr20         O22   1.775       .  S
Cr21         O22   1.770       .  S
O23         Cr41   2.005       .  S
O23          C31   1.262       .  A
O24         Cr41   1.971       .  S
O24          C25   1.260       .  A
C25          O26   1.269       .  A
C25         C651   1.483       .  S
O26         Cr42   2.018       .  S
O27         Cr42   1.999       .  S
O27          C28   1.266       .  A
C28          O29   1.268       .  A
C28         C563   1.489   1_565  S
O29         Cr43   2.003       .  S
O30         Cr43   1.991       .  S
O30          C31   1.261       .  A
C31         C595   1.476       .  S
O32         Cr41   1.960       .  S
O32          C40   1.256       .  A
O33         Cr41   1.990       .  S
O33          C34   1.263       .  A
C34          O35   1.261       .  A
C34         C749   1.474       .  S
O35         Cr42   1.995       .  S
O36         Cr42   1.995       .  S
O36          C37   1.266       .  A
C37          O38   1.266       .  A
C37         C585   1.480       .  S
O38         Cr43   1.997       .  S
O39         Cr43   2.034       .  S
O39          C40   1.270       .  A
C40         C617   1.479       .  S
Cr41         O44   1.765       .  S
Cr42         O44   1.772       .  S
Cr43         O44   1.769       .  S
O45         Cr63   1.961       .  S
O45          C53   1.258       .  A
O46         Cr63   1.987       .  S
O46          C47   1.259       .  A
C47          O48   1.258       .  A
C47         C771   1.467       .  S
O48         Cr64   1.989       .  S
O49         Cr64   2.013       .  S
O49          C50   1.270       .  A
C50          O51   1.264       .  A
C50         C497   1.488   1_455  S
O51         Cr65   1.982       .  S
O52         Cr65   2.031       .  S
O52          C53   1.271       .  A
C53         C541   1.465       .  S
O54         Cr63   1.994       .  S
O54          C62   1.259       .  A
O55         Cr63   1.969       .  S
O55          C56   1.262       .  A
C56          O57   1.272       .  A
C56         C639   1.482       .  S
O57         Cr64   2.023       .  S
O58         Cr64   1.979       .  S
O58          C59   1.260       .  A
C59          O60   1.266   1_455  A
C59         C475   1.484   1_455  S
O60         Cr65   2.004   1_655  S
O61         Cr65   1.999       .  S
O61          C62   1.261       .  A
C62         C519   1.482       .  S
Cr63         O66   1.766       .  S
Cr64         O66   1.774       .  S
Cr65         O66   1.773       .  S
O67         Cr85   1.962       .  S
O67          C75   1.261       .  A
O68         Cr85   2.002   1_556  S
O68          C69   1.263       .  A
C69          O70   1.261       .  A
C69         C441   1.470       .  S
O70         Cr86   1.993       .  S
O71         Cr86   1.993       .  S
O71          C72   1.265       .  A
C72          O73   1.264       .  A
C72         C397   1.485       .  S
O73         Cr87   1.993   1_556  S
O74         Cr87   2.040       .  S
O74          C75   1.274       .  A
C75         C551   1.488       .  S
O76         Cr85   1.995       .  S
O76          C84   1.261       .  A
O77         Cr85   1.974       .  S
O77          C78   1.260   1_554  A
C78          O79   1.267       .  A
C78         C431   1.479       .  S
O79         Cr86   2.013       .  S
O80         Cr86   1.980       .  S
O80          C81   1.263       .  A
C81          O82   1.271       .  A
C81         C375   1.489       .  S
O82         Cr87   2.019   1_556  S
O83         Cr87   2.002       .  S
O83          C84   1.262       .  A
C84         C683   1.489       .  S
Cr85         O88   1.764   1_554  S
Cr86         O88   1.770       .  S
Cr87         O88   1.774   1_554  S
O89        Cr107   2.007       .  S
O89          C97   1.263       .  A
O90        Cr107   1.973       .  S
O90          C91   1.261   1_554  A
C91          O92   1.270       .  A
C91         C365   1.480       .  S
O92        Cr108   2.017       .  S
O93        Cr108   1.983       .  S
O93          C94   1.262       .  A
C94          O95   1.268       .  A
C94         C321   1.485       .  S
O95        Cr109   2.013   1_556  S
O96        Cr109   1.991       .  S
O96          C97   1.261       .  A
C97         C485   1.479       .  S
O98        Cr107   1.963       .  S
O98         C106   1.259       .  A
O99        Cr107   2.005   1_556  S
O99         C100   1.263       .  A
C100        O101   1.260       .  A
C100        C453   1.470       .  S
O101       Cr108   1.990       .  S
O102       Cr108   1.997       .  S
O102        C103   1.268       .  A
C103        O104   1.264       .  A
C103        C331   1.483       .  S
O104       Cr109   1.991   1_556  S
O105       Cr109   2.030       .  S
O105        C106   1.271       .  A
C106        C573   1.479       .  S
Cr107       O110   1.765       .  S
Cr108       O110   1.761   1_556  S
Cr109       O110   1.772       .  S
O111       Cr129   1.956       .  S
O111        C119   1.257       .  A
O112       Cr129   1.986       .  S
O112        C113   1.258   1_554  A
C113        O114   1.259       .  A
C113        C419   1.467       .  S
O114       Cr130   1.994       .  S
O115       Cr130   2.015       .  S
O115        C116   1.270       .  A
C116        O117   1.262       .  A
C116        C265   1.483       .  S
O117       Cr131   1.974   1_556  S
O118       Cr131   2.034       .  S
O118        C119   1.271       .  A
C119        C661   1.468       .  S
O120       Cr129   1.994       .  S
O120        C128   1.260       .  A
O121       Cr129   1.966       .  S
O121        C122   1.261   1_554  A
C122        O123   1.273       .  A
C122        C353   1.481       .  S
O123       Cr130   2.026       .  S
O124       Cr130   1.985       .  S
O124        C125   1.262       .  A
C125        O126   1.267       .  A
C125        C287   1.487       .  S
O126       Cr131   2.007   1_556  S
O127       Cr131   1.994       .  S
O127        C128   1.260       .  A
C128        C463   1.481       .  S
Cr129       O132   1.763       .  S
Cr130       O132   1.770   1_556  S
Cr131       O132   1.771       .  S
O133       Cr151   2.003       .  S
O133        C141   1.262       .  A
O134       Cr151   1.979       .  S
O134        C135   1.262       .  A
C135        O136   1.266       .  A
C135        C243   1.476       .  S
O136       Cr152   2.003       .  S
O137       Cr152   1.976       .  S
O137        C138   1.260       .  A
C138        O139   1.268       .  A
C138        C717   1.479       .  S
O139       Cr153   2.006       .  S
O140       Cr153   1.990       .  S
O140        C141   1.260       .  A
C141        C277   1.476       .  S
O142       Cr151   1.961       .  S
O142        C150   1.259       .  A
O143       Cr151   1.998       .  S
O143        C144   1.264       .  A
C144        O145   1.259       .  A
C144        C221   1.465       .  S
O145       Cr152   1.988       .  S
O146       Cr152   1.993       .  S
O146        C147   1.264       .  A
C147        O148   1.264       .  A
C147        C629   1.479       .  S
O148       Cr153   1.996       .  S
O149       Cr153   2.028       .  S
O149        C150   1.269       .  A
C150        C343   1.474       .  S
Cr151       O154   1.761       .  S
Cr152       O154   1.764       .  S
Cr153       O154   1.768       .  S
O155       Cr173   1.961       .  S
O155        C163   1.259       .  A
O156       Cr173   1.990       .  S
O156        C157   1.260       .  A
C157        O158   1.258       .  A
C157        C199   1.465       .  S
O158       Cr174   1.987       .  S
O159       Cr174   2.006       .  S
O159        C160   1.267       .  A
C160        O161   1.263       .  A
C160        C607   1.488       .  S
O161       Cr175   1.985       .  S
O162       Cr175   2.030       .  S
O162        C163   1.271       .  A
C163        C409   1.470       .  S
O164       Cr173   1.997       .  S
O164        C172   1.261       .  A
O165       Cr173   1.968       .  S
O165        C166   1.261       .  A
C166        O167   1.270       .  A
C166        C255   1.476       .  S
O167       Cr174   2.017       .  S
O168       Cr174   1.974       .  S
O168        C169   1.260       .  A
C169        O170   1.268       .  A
C169        C507   1.484       .  S
O170       Cr175   2.009       .  S
O171       Cr175   2.000       .  S
O171        C172   1.262       .  A
C172        C299   1.489       .  S
Cr173       O176   1.763       .  S
Cr174       O176   1.773       .  S
Cr175       O176   1.770       .  S
O177       Cr195   1.968       .  S
O177        C185   1.262       .  A
O178       Cr195   1.998       .  S
O178        C179   1.262       .  A
C179        O180   1.258       .  A
C179        C233   1.467       .  S
O180       Cr196   1.989       .  S
O181       Cr196   1.997       .  S
O181        C182   1.266       .  A
C182        O183   1.263       .  A
C182        C529   1.483       .  S
O183       Cr197   1.987       .  S
O184       Cr197   2.026       .  S
O184        C185   1.273       .  A
C185        C309   1.479       .  S
O186       Cr195   1.993       .  S
O186        C194   1.260       .  A
O187       Cr195   1.970       .  S
O187        C188   1.261       .  A
C188        O189   1.269       .  A
C188        C211   1.478       .  S
O189       Cr196   2.015       .  S
O190       Cr196   1.974       .  S
O190        C191   1.260       .  A
C191        O192   1.268       .  A
C191        C739   1.484       .  S
O192       Cr197   2.011       .  S
O193       Cr197   2.005       .  S
O193        C194   1.262       .  A
C194        C387   1.486       .  S
Cr195       O198   1.766       .  S
Cr196       O198   1.769       .  S
Cr197       O198   1.769       .  S
C199        C200   1.396       .  A
C199        C204   1.397   1_565  A
C200        C201   1.400   1_565  A
C200        H213   1.083       .  S
C201        C202   1.419       .  A
C201        H214   1.077       .  S
C202        C208   1.429       .  A
C202        C203   1.422       .  A
C203        C205   1.398       .  A
C203        C204   1.399       .  A
C204        H215   1.085   1_545  S
C205        C206   1.387       .  A
C205        H216   1.084       .  S
C206        C207   1.398       .  A
C206        H217   1.084       .  S
C207        C208   1.423       .  A
C207        C212   1.401       .  A
C208        C209   1.414       .  A
C209        C210   1.397       .  A
C209        H218   1.077       .  S
C210        C211   1.401       .  A
C210        H219   1.083       .  S
C211        C212   1.401       .  A
C212        H220   1.085       .  S
C221        C222   1.398   1_565  A
C221        C226   1.394       .  A
C222        C223   1.403       .  A
C222        H235   1.083       .  S
C223        C224   1.419       .  A
C223        H236   1.078       .  S
C224        C230   1.431       .  A
C224        C225   1.423       .  A
C225        C227   1.397       .  A
C225        C226   1.396   1_545  A
C226        H237   1.086       .  S
C227        C228   1.384       .  A
C227        H238   1.084   1_545  S
C228        C229   1.397       .  A
C228        H239   1.084   1_655  S
C229        C230   1.423       .  A
C229        C234   1.398   1_655  A
C230        C231   1.418       .  A
C231        C232   1.402       .  A
C231        H240   1.078       .  S
C232        C233   1.398   1_655  A
C232        H241   1.083       .  S
C233        C234   1.396       .  A
C234        H242   1.086       .  S
C243        C244   1.401       .  A
C243        C248   1.400       .  A
C244        C245   1.393       .  A
C244        H257   1.083       .  S
C245        C246   1.413       .  A
C245        H258   1.077       .  S
C246        C252   1.427       .  A
C246        C247   1.423       .  A
C247        C249   1.398       .  A
C247        C248   1.403       .  A
C248        H259   1.084       .  S
C249        C250   1.388       .  A
C249        H260   1.084       .  S
C250        C251   1.399       .  A
C250        H261   1.084       .  S
C251        C252   1.421       .  A
C251        C256   1.401       .  A
C252        C253   1.416       .  A
C253        C254   1.396       .  A
C253        H262   1.077       .  S
C254        C255   1.400   1_655  A
C254        H263   1.083   1_655  S
C255        C256   1.401   1_455  A
C256        H264   1.085       .  S
C265        C266   1.401       .  A
C265        C270   1.403       .  A
C266        C267   1.396       .  A
C266        H279   1.083       .  S
C267        C268   1.414       .  A
C267        H280   1.077       .  S
C268        C274   1.431       .  A
C268        C269   1.422       .  A
C269        C271   1.400       .  A
C269        C270   1.408       .  A
C270        H281   1.084       .  S
C271        C272   1.392       .  A
C271        H282   1.084       .  S
C272        C273   1.400       .  A
C272        H283   1.084       .  S
C273        C274   1.423       .  A
C273        C278   1.408       .  A
C274        C275   1.415       .  A
C275        C276   1.396       .  A
C275        H284   1.077       .  S
C276        C277   1.399       .  A
C276        H285   1.084       .  S
C277        C278   1.401       .  A
C278        H286   1.085       .  S
C287        C288   1.403       .  A
C287        C292   1.403       .  A
C288        C289   1.401       .  A
C288        H301   1.083       .  S
C289        C290   1.416       .  A
C289        H302   1.078       .  S
C290        C296   1.435   1_655  A
C290        C291   1.423       .  A
C291        C293   1.399       .  A
C291        C292   1.405       .  A
C292        H303   1.085       .  S
C293        C294   1.388   1_655  A
C293        H304   1.084       .  S
C294        C295   1.400       .  A
C294        H305   1.084       .  S
C295        C296   1.421       .  A
C295        C300   1.404       .  A
C296        C297   1.418       .  A
C297        C298   1.403       .  A
C297        H306   1.077       .  S
C298        C299   1.402       .  A
C298        H307   1.083       .  S
C299        C300   1.404       .  A
C300        H308   1.084       .  S
C309        C310   1.400       .  A
C309        C314   1.401       .  A
C310        C311   1.401       .  A
C310        H323   1.083       .  S
C311        C312   1.417   1_455  A
C311        H324   1.078       .  S
C312        C318   1.433       .  A
C312        C313   1.422       .  A
C313        C315   1.399       .  A
C313        C314   1.405   1_655  A
C314        H325   1.085       .  S
C315        C316   1.389       .  A
C315        H326   1.084       .  S
C316        C317   1.399       .  A
C316        H327   1.084       .  S
C317        C318   1.423       .  A
C317        C322   1.406       .  A
C318        C319   1.416       .  A
C319        C320   1.400       .  A
C319        H328   1.078       .  S
C320        C321   1.401       .  A
C320        H329   1.083       .  S
C321        C322   1.403       .  A
C322        H330   1.085       .  S
C331        C332   1.401       .  A
C331        C336   1.406       .  A
C332        C333   1.388       .  A
C332        H345   1.083       .  S
C333        C334   1.410       .  A
C333        H346   1.077       .  S
C334        C340   1.425       .  A
C334        C335   1.421       .  A
C335        C337   1.402   1_545  A
C335        C336   1.413       .  A
C336        H347   1.084       .  S
C337        C338   1.397       .  A
C337        H348   1.084       .  S
C338        C339   1.403       .  A
C338        H349   1.083       .  S
C339        C340   1.422   1_565  A
C339        C344   1.412       .  A
C340        C341   1.413       .  A
C341        C342   1.389   1_545  A
C341        H350   1.076       .  S
C342        C343   1.397       .  A
C342        H351   1.084       .  S
C343        C344   1.404       .  A
C344        H352   1.084       .  S
C353        C354   1.402   1_556  A
C353        C358   1.401       .  A
C354        C355   1.395       .  A
C354        H367   1.083       .  S
C355        C356   1.414   1_554  A
C355        H368   1.078       .  S
C356        C362   1.430       .  A
C356        C357   1.423       .  A
C357        C359   1.399       .  A
C357        C358   1.405       .  A
C358        H369   1.084       .  S
C359        C360   1.389       .  A
C359        H370   1.084       .  S
C360        C361   1.399       .  A
C360        H371   1.084       .  S
C361        C362   1.422       .  A
C361        C366   1.404       .  A
C362        C363   1.415   1_556  A
C363        C364   1.397       .  A
C363        H372   1.077       .  S
C364        C365   1.401   1_554  A
C364        H373   1.083       .  S
C365        C366   1.402       .  A
C366        H374   1.085       .  S
C375        C376   1.401       .  A
C375        C380   1.406       .  A
C376        C377   1.398       .  A
C376        H389   1.083       .  S
C377        C378   1.416       .  A
C377        H390   1.077       .  S
C378        C384   1.433       .  A
C378        C379   1.422       .  A
C379        C381   1.401       .  A
C379        C380   1.410       .  A
C380        H391   1.084       .  S
C381        C382   1.393       .  A
C381        H392   1.084       .  S
C382        C383   1.400       .  A
C382        H393   1.084       .  S
C383        C384   1.424       .  A
C383        C388   1.412       .  A
C384        C385   1.413       .  A
C385        C386   1.395       .  A
C385        H394   1.077       .  S
C386        C387   1.403       .  A
C386        H395   1.083       .  S
C387        C388   1.403       .  A
C388        H396   1.084       .  S
C397        C398   1.403       .  A
C397        C402   1.404       .  A
C398        C399   1.391       .  A
C398        H411   1.083       .  S
C399        C400   1.411       .  A
C399        H412   1.077       .  S
C400        C406   1.428       .  A
C400        C401   1.422       .  A
C401        C403   1.401       .  A
C401        C402   1.411       .  A
C402        H413   1.084       .  S
C403        C404   1.394   1_545  A
C403        H414   1.084   1_545  S
C404        C405   1.401       .  A
C404        H415   1.083       .  S
C405        C406   1.423   1_565  A
C405        C410   1.409       .  A
C406        C407   1.414       .  A
C407        C408   1.392   1_545  A
C407        H416   1.076       .  S
C408        C409   1.397       .  A
C408        H417   1.084       .  S
C409        C410   1.400       .  A
C410        H418   1.084       .  S
C419        C420   1.398   1_556  A
C419        C424   1.397       .  A
C420        C421   1.392       .  A
C420        H433   1.084       .  S
C421        C422   1.413   1_554  A
C421        H434   1.078       .  S
C422        C428   1.428       .  A
C422        C423   1.425       .  A
C423        C425   1.399       .  A
C423        C424   1.408       .  A
C424        H435   1.085       .  S
C425        C426   1.391       .  A
C425        H436   1.084       .  S
C426        C427   1.400       .  A
C426        H437   1.084       .  S
C427        C428   1.421       .  A
C427        C432   1.405       .  A
C428        C429   1.415   1_556  A
C429        C430   1.395       .  A
C429        H438   1.077       .  S
C430        C431   1.400   1_554  A
C430        H439   1.083       .  S
C431        C432   1.404       .  A
C432        H440   1.084       .  S
C441        C442   1.397       .  A
C441        C446   1.398       .  A
C442        C443   1.402       .  A
C442        H455   1.084       .  S
C443        C444   1.419       .  A
C443        H456   1.077       .  S
C444        C450   1.433       .  A
C444        C445   1.423       .  A
C445        C447   1.398       .  A
C445        C446   1.401       .  A
C446        H457   1.085       .  S
C447        C448   1.387       .  A
C447        H458   1.084       .  S
C448        C449   1.398       .  A
C448        H459   1.084       .  S
C449        C450   1.423       .  A
C449        C454   1.402       .  A
C450        C451   1.418       .  A
C451        C452   1.402       .  A
C451        H460   1.077       .  S
C452        C453   1.397       .  A
C452        H461   1.084       .  S
C453        C454   1.397       .  A
C454        H462   1.085       .  S
C463        C464   1.401       .  A
C463        C468   1.402       .  A
C464        C465   1.401       .  A
C464        H477   1.083       .  S
C465        C466   1.417       .  A
C465        H478   1.077       .  S
C466        C472   1.432       .  A
C466        C467   1.421       .  A
C467        C469   1.399       .  A
C467        C468   1.401       .  A
C468        H479   1.084       .  S
C469        C470   1.387       .  A
C469        H480   1.084       .  S
C470        C471   1.398       .  A
C470        H481   1.084       .  S
C471        C472   1.423       .  A
C471        C476   1.403       .  A
C472        C473   1.415       .  A
C473        C474   1.400   1_655  A
C473        H482   1.078   1_655  S
C474        C475   1.403   1_455  A
C474        H483   1.083       .  S
C475        C476   1.401       .  A
C476        H484   1.085       .  S
C485        C486   1.400       .  A
C485        C490   1.401       .  A
C486        C487   1.399       .  A
C486        H499   1.084       .  S
C487        C488   1.416       .  A
C487        H500   1.078       .  S
C488        C494   1.433       .  A
C488        C489   1.423       .  A
C489        C491   1.399       .  A
C489        C490   1.407       .  A
C490        H501   1.085       .  S
C491        C492   1.391       .  A
C491        H502   1.084       .  S
C492        C493   1.400       .  A
C492        H503   1.084       .  S
C493        C494   1.423       .  A
C493        C498   1.408       .  A
C494        C495   1.415       .  A
C495        C496   1.399   1_655  A
C495        H504   1.078       .  S
C496        C497   1.403   1_455  A
C496        H505   1.083       .  S
C497        C498   1.404       .  A
C498        H506   1.084       .  S
C507        C508   1.400       .  A
C507        C512   1.405       .  A
C508        C509   1.395       .  A
C508        H521   1.083       .  S
C509        C510   1.415       .  A
C509        H522   1.077       .  S
C510        C516   1.430       .  A
C510        C511   1.421       .  A
C511        C513   1.401       .  A
C511        C512   1.407       .  A
C512        H523   1.084       .  S
C513        C514   1.392       .  A
C513        H524   1.084       .  S
C514        C515   1.400       .  A
C514        H525   1.084       .  S
C515        C516   1.424       .  A
C515        C520   1.409       .  A
C516        C517   1.412       .  A
C517        C518   1.393       .  A
C517        H526   1.078       .  S
C518        C519   1.402       .  A
C518        H527   1.083       .  S
C519        C520   1.402       .  A
C520        H528   1.085       .  S
C529        C530   1.402       .  A
C529        C534   1.403       .  A
C530        C531   1.393       .  A
C530        H543   1.083       .  S
C531        C532   1.413       .  A
C531        H544   1.077       .  S
C532        C538   1.430       .  A
C532        C533   1.423       .  A
C533        C535   1.400       .  A
C533        C534   1.408       .  A
C534        H545   1.084       .  S
C535        C536   1.392       .  A
C535        H546   1.084       .  S
C536        C537   1.400       .  A
C536        H547   1.084       .  S
C537        C538   1.423       .  A
C537        C542   1.407       .  A
C538        C539   1.416       .  A
C539        C540   1.394       .  A
C539        H548   1.077       .  S
C540        C541   1.395       .  A
C540        H549   1.084       .  S
C541        C542   1.399       .  A
C542        H550   1.085       .  S
C551        C552   1.402       .  A
C551        C556   1.406       .  A
C552        C553   1.392       .  A
C552        H565   1.084       .  S
C553        C554   1.412       .  A
C553        H566   1.076       .  S
C554        C560   1.432       .  A
C554        C555   1.423       .  A
C555        C557   1.402       .  A
C555        C556   1.416       .  A
C556        H567   1.084       .  S
C557        C558   1.397       .  A
C557        H568   1.084       .  S
C558        C559   1.402       .  A
C558        H569   1.084   1_545  S
C559        C560   1.422       .  A
C559        C564   1.416   1_545  A
C560        C561   1.412       .  A
C561        C562   1.392       .  A
C561        H570   1.077       .  S
C562        C563   1.403       .  A
C562        H571   1.083       .  S
C563        C564   1.406   1_545  A
C564        H572   1.084       .  S
C573        C574   1.400       .  A
C573        C578   1.402       .  A
C574        C575   1.392       .  A
C574        H587   1.084       .  S
C575        C576   1.414       .  A
C575        H588   1.076       .  S
C576        C582   1.428       .  A
C576        C577   1.422       .  A
C577        C579   1.401       .  A
C577        C578   1.410       .  A
C578        H589   1.084       .  S
C579        C580   1.394       .  A
C579        H590   1.083       .  S
C580        C581   1.400       .  A
C580        H591   1.084       .  S
C581        C582   1.423       .  A
C581        C586   1.411       .  A
C582        C583   1.411       .  A
C583        C584   1.390       .  A
C583        H592   1.077       .  S
C584        C585   1.402   1_545  A
C584        H593   1.084   1_545  S
C585        C586   1.402   1_565  A
C586        H594   1.084   1_545  S
C595        C596   1.400       .  A
C595        C600   1.399       .  A
C596        C597   1.400       .  A
C596        H609   1.083       .  S
C597        C598   1.416       .  A
C597        H610   1.078       .  S
C598        C604   1.433       .  A
C598        C599   1.423       .  A
C599        C601   1.399       .  A
C599        C600   1.406       .  A
C600        H611   1.085       .  S
C601        C602   1.390       .  A
C601        H612   1.084       .  S
C602        C603   1.400       .  A
C602        H613   1.084       .  S
C603        C604   1.422       .  A
C603        C608   1.407       .  A
C604        C605   1.415       .  A
C605        C606   1.400       .  A
C605        H614   1.078       .  S
C606        C607   1.402       .  A
C606        H615   1.083       .  S
C607        C608   1.404       .  A
C608        H616   1.084       .  S
C617        C618   1.400       .  A
C617        C622   1.400       .  A
C618        C619   1.404       .  A
C618        H631   1.083       .  S
C619        C620   1.417       .  A
C619        H632   1.078       .  S
C620        C626   1.433       .  A
C620        C621   1.423       .  A
C621        C623   1.398       .  A
C621        C622   1.400       .  A
C622        H633   1.085       .  S
C623        C624   1.385       .  A
C623        H634   1.084       .  S
C624        C625   1.398       .  A
C624        H635   1.084       .  S
C625        C626   1.422       .  A
C625        C630   1.398       .  A
C626        C627   1.419       .  A
C627        C628   1.404       .  A
C627        H636   1.078       .  S
C628        C629   1.400       .  A
C628        H637   1.083       .  S
C629        C630   1.400       .  A
C630        H638   1.085       .  S
C639        C640   1.402       .  A
C639        C644   1.403       .  A
C640        C641   1.395       .  A
C640        H653   1.083       .  S
C641        C642   1.414       .  A
C641        H654   1.077       .  S
C642        C648   1.430       .  A
C642        C643   1.423       .  A
C643        C645   1.400       .  A
C643        C644   1.406       .  A
C644        H655   1.084       .  S
C645        C646   1.390       .  A
C645        H656   1.084       .  S
C646        C647   1.400       .  A
C646        H657   1.084       .  S
C647        C648   1.422       .  A
C647        C652   1.406       .  A
C648        C649   1.414       .  A
C649        C650   1.395       .  A
C649        H658   1.077       .  S
C650        C651   1.401       .  A
C650        H659   1.083       .  S
C651        C652   1.403       .  A
C652        H660   1.084       .  S
C661        C662   1.397       .  A
C661        C666   1.398       .  A
C662        C663   1.401       .  A
C662        H675   1.083       .  S
C663        C664   1.418       .  A
C663        H676   1.078       .  S
C664        C670   1.430       .  A
C664        C665   1.422       .  A
C665        C667   1.398       .  A
C665        C666   1.399       .  A
C666        H677   1.086       .  S
C667        C668   1.386       .  A
C667        H678   1.084       .  S
C668        C669   1.398       .  A
C668        H679   1.084       .  S
C669        C670   1.422       .  A
C669        C674   1.400       .  A
C670        C671   1.416       .  A
C671        C672   1.400       .  A
C671        H680   1.078       .  S
C672        C673   1.402       .  A
C672        H681   1.083       .  S
C673        C674   1.401       .  A
C674        H682   1.085       .  S
C683        C684   1.403       .  A
C683        C688   1.402       .  A
C684        C685   1.406       .  A
C684        H697   1.083       .  S
C685        C686   1.419       .  A
C685        H698   1.078       .  S
C686        C692   1.436       .  A
C686        C687   1.422       .  A
C687        C689   1.398       .  A
C687        C688   1.401       .  A
C688        H699   1.084       .  S
C689        C690   1.386       .  A
C689        H700   1.084       .  S
C690        C691   1.398       .  A
C690        H701   1.084       .  S
C691        C692   1.423       .  A
C691        C696   1.403       .  A
C692        C693   1.417       .  A
C693        C694   1.404       .  A
C693        H702   1.078       .  S
C694        C695   1.404       .  A
C694        H703   1.083       .  S
C695        C696   1.402       .  A
C696        H704   1.085       .  S
C705        C706   1.399       .  A
C705        C710   1.397       .  A
C706        C707   1.402       .  A
C706        H719   1.083       .  S
C707        C708   1.418       .  A
C707        H720   1.078       .  S
C708        C714   1.430       .  A
C708        C709   1.422       .  A
C709        C711   1.397       .  A
C709        C710   1.398       .  A
C710        H721   1.085       .  S
C711        C712   1.385       .  A
C711        H722   1.084       .  S
C712        C713   1.397       .  A
C712        H723   1.084       .  S
C713        C714   1.422       .  A
C713        C718   1.398       .  A
C714        C715   1.416       .  A
C715        C716   1.400       .  A
C715        H724   1.078       .  S
C716        C717   1.402       .  A
C716        H725   1.083       .  S
C717        C718   1.399       .  A
C718        H726   1.084       .  S
C727        C728   1.403       .  A
C727        C732   1.400       .  A
C728        C729   1.393       .  A
C728        H741   1.083       .  S
C729        C730   1.412       .  A
C729        H742   1.077       .  S
C730        C736   1.430       .  A
C730        C731   1.424       .  A
C731        C733   1.399       .  A
C731        C732   1.408       .  A
C732        H743   1.084       .  S
C733        C734   1.391       .  A
C733        H744   1.084       .  S
C734        C735   1.400       .  A
C734        H745   1.084       .  S
C735        C736   1.421       .  A
C735        C740   1.406       .  A
C736        C737   1.416       .  A
C737        C738   1.397       .  A
C737        H746   1.077       .  S
C738        C739   1.401       .  A
C738        H747   1.083       .  S
C739        C740   1.404       .  A
C740        H748   1.084       .  S
C749        C750   1.399       .  A
C749        C754   1.397       .  A
C750        C751   1.405       .  A
C750        H763   1.083       .  S
C751        C752   1.419       .  A
C751        H764   1.078       .  S
C752        C758   1.433       .  A
C752        C753   1.423       .  A
C753        C755   1.397       .  A
C753        C754   1.397       .  A
C754        H765   1.086       .  S
C755        C756   1.384       .  A
C755        H766   1.084       .  S
C756        C757   1.398       .  A
C756        H767   1.084       .  S
C757        C758   1.423       .  A
C757        C762   1.398       .  A
C758        C759   1.419       .  A
C759        C760   1.405       .  A
C759        H768   1.078       .  S
C760        C761   1.399       .  A
C760        H769   1.083       .  S
C761        C762   1.398       .  A
C762        H770   1.086       .  S
C771        C772   1.396       .  A
C771        C776   1.400       .  A
C772        C773   1.390       .  A
C772        H785   1.084       .  S
C773        C774   1.413       .  A
C773        H786   1.077       .  S
C774        C780   1.426       .  A
C774        C775   1.424       .  A
C775        C777   1.401       .  A
C775        C776   1.409       .  A
C776        H787   1.084       .  S
C777        C778   1.394       .  A
C777        H788   1.084       .  S
C778        C779   1.401       .  A
C778        H789   1.084       .  S
C779        C780   1.421       .  A
C779        C784   1.408       .  A
C780        C781   1.413       .  A
C781        C782   1.391       .  A
C781        H790   1.077       .  S
C782        C783   1.399       .  A
C782        H791   1.084       .  S
C783        C784   1.405       .  A
C784        H792   1.084       .  S
