geometry optimzed in LAMMPS
_audit_creation_date              2020-12-01 
_audit_creation_method            'lammps2cif' 
_symmetry_space_group_name_H-M    'P1' 
_symmetry_Int_Tables_number       1 
_symmetry_cell_setting            triclinic 
loop_ 
_symmetry_equiv_pos_as_xyz 
  x,y,z 
_cell_length_a                    41.5248081 
_cell_length_b                    42.466384636874594 
_cell_length_c                    59.39554847302422 
_cell_angle_alpha                 89.76803845454559 
_cell_angle_beta                  89.86462071351596 
_cell_angle_gamma                 124.65936641263453 
loop_ 
_atom_site_label 
_atom_site_type_symbol 
_atom_site_fract_x 
_atom_site_fract_y 
_atom_site_fract_z 
_atom_site_charge 
C1          C  0.16298370  0.32791934  0.62128832     0.46700
H2          H  0.16477097  0.32805592  0.60260964    -0.02300
C3          C  0.15906335  0.32703621  0.66508676     0.46700
H4          H  0.15760585  0.32703874  0.68375628    -0.02300
C5          C  0.14244210  0.28800107  0.63155984    -0.16000
C6          C  0.20298653  0.35121193  0.63256027    -0.15800
C7          C  0.14013085  0.34339066  0.63012302    -0.16200
C8          C  0.14112359  0.28693844  0.65470900    -0.16200
C9          C  0.20141877  0.35126059  0.65567529    -0.15700
C10         C  0.13820824  0.34355569  0.65326262    -0.16000
C11         C  0.15657407  0.32291377  0.86065831     0.46700
H12         H  0.15553812  0.32413947  0.87933119    -0.02300
C13         C  0.15907137  0.32045552  0.81689550     0.46700
H14         H  0.16006339  0.31925689  0.79824408    -0.02300
C15         C  0.13930148  0.28284626  0.85176414    -0.16000
C16         C  0.13420668  0.33652969  0.84878142    -0.15800
C17         C  0.19793437  0.34748635  0.85090314    -0.16200
C18         C  0.14069730  0.28126513  0.82874746    -0.16200
C19         C  0.13536676  0.33574901  0.82573475    -0.15700
C20         C  0.19978292  0.34635057  0.82784243    -0.16000
C21         C  0.00467540  0.49009840  0.72033218     0.46700
H22         H  0.00506336  0.49194758  0.70166053    -0.02300
C23         C  0.00344571  0.48548473  0.76435304     0.46700
H24         H  0.00283189  0.48369870  0.78303260    -0.02300
C25         C  0.02930767  0.03087120  0.73127169    -0.16000
C26         C  0.46402119  0.46897460  0.72942657    -0.15800
C27         C  0.02240884  0.46930489  0.72970491    -0.16200
C28         C  0.02899720  0.02866982  0.75436815    -0.16200
C29         C  0.46344065  0.46734353  0.75250627    -0.15700
C30         C  0.02149494  0.46651301  0.75278592    -0.16000
C31         C  0.30558002  0.12673157  0.36266536     0.46700
H32         H  0.30318840  0.12513792  0.38133754    -0.02300
C33         C  0.31102053  0.12985118  0.31890649     0.46700
H34         H  0.31330869  0.13118644  0.30024087    -0.02300
C35         C  0.32554082  0.16725120  0.35310651    -0.16000
C36         C  0.32982529  0.11296844  0.35353580    -0.15800
C37         C  0.26594500  0.10299809  0.35079468    -0.16200
C38         C  0.32872072  0.16927081  0.33003540    -0.16200
C39         C  0.33215408  0.11366069  0.33045397    -0.15700
C40         C  0.26850569  0.10471983  0.32776816    -0.16000
C41         C  0.30916474  0.12613722  0.11996938     0.46700
H42         H  0.31124086  0.12404994  0.10143798    -0.02300
C43         C  0.30498301  0.13107016  0.16338809     0.46700
H44         H  0.30304538  0.13182913  0.18195174    -0.02300
C45         C  0.32999705  0.16730616  0.12817113    -0.16000
C46         C  0.26707326  0.10591751  0.12857227    -0.15800
C47         C  0.32707857  0.10904956  0.13330548    -0.16200
C48         C  0.32844540  0.17080433  0.15128312    -0.16200
C49         C  0.26457862  0.10818968  0.15155075    -0.15700
C50         C  0.32501654  0.11126722  0.15606843    -0.16000
C51         C  0.46149366  0.46586547  0.21888397     0.46700
H52         H  0.46116332  0.46577994  0.20018498    -0.02300
C53         C  0.46244888  0.46525831  0.26289689     0.46700
H54         H  0.46285845  0.46532278  0.28158834    -0.02300
C55         C  0.44102648  0.42560966  0.22916159    -0.16000
C56         C  0.00361958  0.49000936  0.22986292    -0.15800
C57         C  0.44099765  0.48308313  0.22968200    -0.16200
C58         C  0.44209338  0.42499754  0.25237901    -0.16200
C59         C  0.00481117  0.49055381  0.25304995    -0.15700
C60         C  0.44221221  0.48328685  0.25286361    -0.16000
O61         O  0.05080124  0.06470425  0.97610376    -0.79700
O62         O  0.46764873  0.39861549  0.00670002    -0.64400
O63         O  0.99831115  0.48854099  0.97138581    -1.11000
C64         C  0.42111997  0.99618522  0.02692216     1.07200
O65         O  0.40728637  0.38195700  0.00408015    -0.77600
O66         O  0.38389993  0.42563469  0.98968553    -0.65200
Ni67       Ni  0.05028282  0.02414129  0.96229993     1.27900
C68         C  0.39573921  0.44948975  0.97359250     0.86000
O69         O  0.01331163  0.43231924  0.96811008    -0.78100
O70         O  0.05350710  0.48689227  0.94823062    -0.88400
C71         C  0.43139932  0.37469913  0.01077705     0.85500
O72         O  0.07624574  0.02232093  0.98816063    -0.66600
O73         O  0.40653348  0.46394180  0.02989941    -0.85900
C74         C  0.06473473  0.00100830  0.00549137     0.86400
C75         C  0.03775308  0.45138992  0.95213239     1.07900
H76         H  0.47543895  0.46861482  0.02232788     0.39700
O77         O  0.46112768  0.46009440  0.00835454    -1.08500
O78         O  0.42968333  0.48048912  0.97293952    -0.65200
Ni79       Ni  0.47312570  0.00320203  0.99114171     1.26300
O80         O  0.03186171  0.47267793  0.00784901    -0.65400
O81         O  0.44839083  0.01698144  0.01257124    -0.77700
C82         C  0.02784994  0.07274848  0.96856288     0.85700
O83         O  0.48988597  0.04833010  0.97362821    -0.64900
Ni84       Ni  0.40793519  0.42394232  0.01647801     1.27400
Ni85       Ni  0.48486178  0.44318279  0.98871043     1.26100
H86         H  0.48292504  0.47782888  0.95779362     0.40300
O87         O  0.40656614  0.39866645  0.46040539    -0.79700
O88         O  0.50733678  0.05161980  0.51541586    -0.64400
O89         O  0.46585964  0.47081583  0.47331407    -1.11000
C90         C  0.03239652  0.43739688  0.51563495     1.07200
O91         O  0.06420005  0.05982471  0.52190966    -0.77600
O92         O  0.06652825  0.02748813  0.48267451    -0.65200
Ni93       Ni  0.41080809  0.44405965  0.46867819     1.34900
C94         C  0.05625517  0.00288168  0.46722907     0.86000
O95         O  0.47130808  0.03830322  0.47537012    -0.78100
O96         O  0.40841528  0.48707273  0.47489854    -0.88400
C97         C  0.04203929  0.07141423  0.52351151     0.85500
O98         O  0.40163344  0.42903271  0.49937857    -0.66600
O99         O  0.05754792  0.47087164  0.50840808    -0.85900
C100        C  0.41205115  0.45257367  0.51542147     0.86400
C101        C  0.43626895  0.02303720  0.46907584     1.07900
H102        H  0.49156855  0.47926104  0.52512430     0.39700
O103        O  0.00125367  0.48695969  0.51016799    -1.08500
O104        O  0.02633332  0.46836099  0.47018195    -0.65200
Ni105      Ni  0.48254232  0.44436895  0.49094178     1.26300
O106        O  0.44008311  0.48803160  0.51305991    -0.65400
O107        O  0.99712206  0.41993221  0.50900611    -0.77700
C108        C  0.42726748  0.38535838  0.46067768     0.85700
O109        O  0.45927830  0.40106999  0.47140652    -0.64900
Ni110      Ni  0.05863841  0.01366216  0.51364363     1.27400
Ni111      Ni  0.48655368  0.01149601  0.49389221     1.26100
H112        H  0.47929514  0.47943235  0.45893928     0.40300
C113        C  0.15976447  0.04819563  0.03801124    -0.27000
C114        C  0.14630139  0.03920356  0.06035912     0.06600
C115        C  0.10575001  0.01639845  0.06456412     0.26200
C116        C  0.07926619  0.00282974  0.04662244    -0.11500
C117        C  0.09278617  0.01244265  0.02423961    -0.25400
C118        C  0.13344078  0.03519373  0.02013033     0.37100
C119        C  0.17502450  0.05388260  0.07899204     0.06600
F120        F  0.09180020  0.00700985  0.08597879    -0.19200
H121        H  0.04815695  0.98564419  0.05027241     0.16500
F122        F  0.14924734  0.54404932  0.99954204    -0.22900
H123        H  0.19089246  0.06588487  0.03441429     0.18300
C124        C  0.20440716  0.04710784  0.07909848     0.26300
C125        C  0.23324171  0.06328122  0.09565140    -0.11400
C126        C  0.23358176  0.08653253  0.11252539    -0.25500
C127        C  0.20421835  0.09353516  0.11237183     0.37200
C128        C  0.17493603  0.07688137  0.09590018    -0.27100
F129        F  0.20539559  0.02500716  0.06304197    -0.19200
H130        H  0.25587436  0.05813407  0.09495316     0.16500
F131        F  0.20520901  0.11841467  0.12706834    -0.22900
H132        H  0.15312635  0.08326966  0.09575825     0.18300
C133        C  0.38903255  0.23051899  0.07857417    -0.27000
C134        C  0.37465390  0.25326545  0.07621849     0.06600
C135        C  0.34616090  0.24840161  0.09153410     0.26200
C136        C  0.33248218  0.22121832  0.10889337    -0.11500
C137        C  0.34688901  0.19847483  0.11114149    -0.25400
C138        C  0.37512150  0.20319190  0.09575391     0.37100
C139        C  0.38961640  0.28206383  0.05784190     0.06600
F140        F  0.33187323  0.27018484  0.08983040    -0.19200
H141        H  0.31023104  0.21746346  0.12038355     0.16500
F142        F  0.38929851  0.18135224  0.09731986    -0.22900
H143        H  0.41067402  0.23355006  0.06685318     0.18300
C144        C  0.42999709  0.30998600  0.05523199     0.26300
C145        C  0.44364083  0.33869731  0.03884715    -0.11400
C146        C  0.41730131  0.34020987  0.02484912    -0.25500
C147        C  0.37699652  0.31091025  0.02667971     0.37200
C148        C  0.36342804  0.28222165  0.04305396    -0.27100
F149        F  0.45609153  0.31081487  0.06937920    -0.19200
H150        H  0.47472436  0.36090525  0.03793085     0.16500
F151        F  0.35050545  0.31042997  0.01306631    -0.22900
H152        H  0.33228855  0.26039034  0.04445237     0.18300
C153        C  0.41104620  0.06788649  0.05863843    -0.27000
C154        C  0.38980261  0.04612228  0.07774251     0.06600
C155        C  0.38023085  0.00886514  0.08016123     0.26200
C156        C  0.39039050  0.99321949  0.06343114    -0.11500
C157        C  0.41078089  0.01438209  0.04397011    -0.25400
C158        C  0.42180710  0.05233847  0.04191252     0.37100
C159        C  0.37516421  0.06116059  0.09424488     0.06600
F160        F  0.36117186  0.98754386  0.09879643    -0.19200
H161        H  0.38244480  0.96433882  0.06592735     0.16500
F162        F  0.44237729  0.57624727  0.02238579    -0.22900
H163        H  0.41840430  0.09660139  0.05637817     0.18300
C164        C  0.39988792  0.09816844  0.10315388     0.26300
C165        C  0.38439989  0.11303258  0.11698428    -0.11400
C166        C  0.34428811  0.09123058  0.12193575    -0.25500
C167        C  0.32011307  0.05347683  0.11440312     0.37200
C168        C  0.33539111  0.03867474  0.10046631    -0.27100
F169        F  0.43877113  0.11995898  0.09831415    -0.19200
H170        H  0.40344265  0.14188447  0.12335380     0.16500
F171        F  0.28164692  0.03122741  0.12019565    -0.22900
H172        H  0.31579768  0.01003935  0.09389891     0.18300
C173        C  0.34723531  0.24852263  0.19279831    -0.27000
C174        C  0.37914718  0.28206591  0.18276704     0.06600
C175        C  0.39659659  0.27785844  0.16362364     0.26200
C176        C  0.38181859  0.24159104  0.15478914    -0.11500
C177        C  0.34730490  0.20855332  0.16333094    -0.25400
C178        C  0.33101050  0.21252938  0.18308151     0.37100
C179        C  0.39432086  0.32060575  0.19276022     0.06600
F180        F  0.42712074  0.30861496  0.15269979    -0.19200
H181        H  0.39740472  0.23980390  0.14082446     0.16500
F182        F  0.29902565  0.18210665  0.19313459    -0.22900
H183        H  0.33441884  0.24986431  0.20832648     0.18300
C184        C  0.36902638  0.32815314  0.20368132     0.26300
C185        C  0.38421592  0.36255357  0.21522109    -0.11400
C186        C  0.42443846  0.39115741  0.21485756    -0.25500
C187        C  0.44919736  0.38558724  0.20206042     0.37200
C188        C  0.43462978  0.35016589  0.19209627    -0.27100
F189        F  0.32957409  0.30260720  0.20314895    -0.19200
H190        H  0.36456736  0.36691863  0.22448706     0.16500
F191        F  0.48816418  0.41315974  0.20092234    -0.22900
H192        H  0.45553639  0.34578930  0.18464554     0.18300
C193        C  0.33105200  0.03553330  0.18493463    -0.27000
C194        C  0.37092538  0.05608453  0.19062915     0.06600
C195        C  0.39436818  0.09611589  0.18731610     0.26200
C196        C  0.37845924  0.11465123  0.17770096    -0.11500
C197        C  0.33894954  0.09375022  0.17142010    -0.25400
C198        C  0.31520651  0.05411923  0.17547231     0.37100
C199        C  0.38776497  0.03549367  0.19965203     0.06600
F200        F  0.43274086  0.11726005  0.19312792    -0.19200
H201        H  0.39738358  0.14509651  0.17421145     0.16500
F202        F  0.27717624  0.03303634  0.16901567    -0.22900
H203        H  0.31238965  0.00472517  0.18701098     0.18300
C204        C  0.36722979  0.50574556  0.21439503     0.26300
C205        C  0.38377145  0.48766487  0.22361485    -0.11400
C206        C  0.42080691  0.49744619  0.21656919    -0.25500
C207        C  0.43944358  0.02426779  0.19973343     0.37200
C208        C  0.42263570  0.04234391  0.19064311    -0.27100
F209        F  0.33284417  0.49729707  0.22300794    -0.19200
H210        H  0.36813834  0.46686033  0.23697864     0.16500
F211        F  0.47347802  0.03246423  0.19086781    -0.22900
H212        H  0.43710666  0.06202975  0.17663398     0.18300
C213        C  0.09724502  0.00337824  0.20798498    -0.27000
C214        C  0.11216037  0.03522202  0.19368265     0.06600
C215        C  0.08888790  0.04889505  0.18908735     0.26200
C216        C  0.05242382  0.03228262  0.19963710    -0.11500
C217        C  0.03887836  0.50295775  0.21574422    -0.25400
C218        C  0.06085567  0.48754815  0.21940594     0.37100
C219        C  0.15199956  0.05399857  0.18382611     0.06600
F220        F  0.10154752  0.07855860  0.17457258    -0.19200
H221        H  0.03629681  0.04478243  0.19690774     0.16500
F222        F  0.04765468  0.45759669  0.23378187    -0.22900
H223        H  0.11450386  0.99221769  0.21170300     0.18300
C224        C  0.17975557  0.09383371  0.18542082     0.26300
C225        C  0.21669907  0.11116161  0.17539929    -0.11400
C226        C  0.22684739  0.08916005  0.16395026    -0.25500
C227        C  0.19966496  0.04927028  0.16297002     0.37200
C228        C  0.16261894  0.03190100  0.17285114    -0.27100
F229        F  0.17126325  0.11599626  0.19673537    -0.19200
H230        H  0.23663359  0.14196091  0.17566995     0.16500
F231        F  0.20874167  0.02721326  0.15210540    -0.22900
H232        H  0.14185744  0.00118302  0.17153347     0.18300
C233        C  0.17168383  0.07974585  0.37720705    -0.27000
C234        C  0.16284800  0.05010218  0.39211005     0.06600
C235        C  0.18647178  0.03614972  0.39218299     0.26200
C236        C  0.21937107  0.05276455  0.37810757    -0.11500
C237        C  0.22880284  0.08312467  0.36369337    -0.25400
C238        C  0.20454220  0.09635458  0.36317362     0.37100
C239        C  0.13297266  0.03812074  0.40982847     0.06600
F240        F  0.17922428  0.00829144  0.40692576    -0.19200
H241        H  0.23819284  0.04272227  0.37889780     0.16500
F242        F  0.21417209  0.12713230  0.35040983    -0.22900
H243        H  0.15414258  0.09124768  0.37727123     0.18300
C244        C  0.13877250  0.06469301  0.42609080     0.26300
C245        C  0.11273619  0.05325159  0.44409054    -0.11400
C246        C  0.08038490  0.01496386  0.44638164    -0.25500
C247        C  0.07305526  0.48979497  0.42949400     0.37200
C248        C  0.10015746  0.00012676  0.41150042    -0.27100
F249        F  0.17089213  0.10137138  0.42519320    -0.19200
H250        H  0.11879480  0.07432626  0.45667055     0.16500
F251        F  0.04169612  0.45274840  0.43035542    -0.22900
H252        H  0.09469810  0.48127199  0.39876062     0.18300
C253        C  0.33317768  0.22634797  0.40249909    -0.27000
C254        C  0.37228007  0.25792246  0.40106918     0.06600
C255        C  0.39597302  0.26043018  0.38328083     0.26200
C256        C  0.38047427  0.23145744  0.36718630    -0.11500
C257        C  0.34107796  0.20011739  0.36846073    -0.25400
C258        C  0.31757379  0.19784965  0.38628559     0.37100
C259        C  0.38655629  0.28954226  0.41705715     0.06600
F260        F  0.43367414  0.29116854  0.38123288    -0.19200
H261        H  0.39957842  0.23300304  0.35418338     0.16500
F262        F  0.27936632  0.16812679  0.38799615    -0.22900
H263        H  0.31451538  0.22408507  0.41609985     0.18300
C264        C  0.36623657  0.30670697  0.41906927     0.26300
C265        C  0.37921940  0.33682118  0.43379795    -0.11400
C266        C  0.41295194  0.35084379  0.44691129    -0.25500
C267        C  0.43288773  0.33295621  0.44535417     0.37200
C268        C  0.41978645  0.30257184  0.43035623    -0.27100
F269        F  0.33434418  0.29507348  0.40620849    -0.19200
H270        H  0.36299471  0.34968705  0.43444996     0.16500
F271        F  0.46491583  0.34480223  0.45810241    -0.22900
H272        H  0.43539872  0.28911708  0.42915826     0.18300
C273        C  0.37231607  0.04318190  0.43600770    -0.27000
C274        C  0.39948635  0.07238812  0.42139845     0.06600
C275        C  0.43970684  0.08964972  0.42493357     0.26200
C276        C  0.45212440  0.07548126  0.44173778    -0.11500
C277        C  0.42457978  0.04422872  0.45532537    -0.25400
C278        C  0.38456461  0.02937465  0.45287428     0.37100
C279        C  0.38499071  0.08369362  0.40239063     0.06600
F280        F  0.46674563  0.11856660  0.41131309    -0.19200
H281        H  0.48304554  0.08747289  0.44322680     0.16500
F282        F  0.35317976  0.49530935  0.46444484    -0.22900
H283        H  0.33733177  0.52465694  0.43184535     0.18300
C284        C  0.35833782  0.05620179  0.38681392     0.26300
C285        C  0.34152351  0.06605027  0.37026396    -0.11400
C286        C  0.35082288  0.10330002  0.36915919    -0.25500
C287        C  0.37829177  0.13101394  0.38430379     0.37200
C288        C  0.39541200  0.12130402  0.40066401    -0.27100
F289        F  0.34816854  0.01967863  0.38786312    -0.19200
H290        H  0.32032681  0.04436407  0.35878928     0.16500
F291        F  0.38829739  0.16745584  0.38343674    -0.22900
H292        H  0.41573226  0.14280645  0.41252224     0.18300
C293        C  0.42647057  0.33094193  0.27024650    -0.27000
C294        C  0.39950535  0.31879465  0.28808201     0.06600
C295        C  0.39114065  0.34472036  0.29615216     0.26200
C296        C  0.40550067  0.37945516  0.28480135    -0.11500
C297        C  0.42989369  0.38992667  0.26586828    -0.25400
C298        C  0.44263815  0.36659616  0.25992694     0.37100
C299        C  0.38069414  0.27946244  0.29801717     0.06600
F300        F  0.36977287  0.33697778  0.31524270    -0.19200
H301        H  0.39721585  0.39795494  0.29071283     0.16500
F302        F  0.47169887  0.37867364  0.24461377    -0.22900
H303        H  0.43504182  0.31277082  0.26405972     0.18300
C304        C  0.34084934  0.25720877  0.30449722     0.26300
C305        C  0.32405603  0.22117381  0.31452998    -0.11400
C306        C  0.34574857  0.20551186  0.31718545    -0.25500
C307        C  0.38455052  0.22615526  0.30935430     0.37200
C308        C  0.40207063  0.26306649  0.30032204    -0.27100
F309        F  0.31765928  0.26968022  0.30064427    -0.19200
H310        H  0.29398961  0.20546336  0.32035000     0.16500
F311        F  0.40607391  0.21141912  0.31153500    -0.22900
H312        H  0.43264272  0.27902351  0.29549392     0.18300
C313        C  0.40812592  0.09684746  0.31106264    -0.27000
C314        C  0.38512892  0.06357537  0.29815648     0.06600
C315        C  0.34547261  0.04887079  0.29456031     0.26200
C316        C  0.32897576  0.06657607  0.30427937    -0.11500
C317        C  0.35160333  0.09886700  0.31786725    -0.25400
C318        C  0.39153155  0.11440159  0.32088568     0.37100
C319        C  0.40250296  0.04423099  0.28855424     0.06600
F320        F  0.31919065  0.51282406  0.28266041    -0.19200
H321        H  0.29815108  0.05432366  0.30183468     0.16500
F322        F  0.41427364  0.14621679  0.33353946    -0.22900
H323        H  0.43875565  0.10872357  0.31393134     0.18300
C324        C  0.43576976  0.06433679  0.27457155     0.26300
C325        C  0.45059130  0.04528695  0.26458079    -0.11400
C326        C  0.43024829  0.50411367  0.26675366    -0.25500
C327        C  0.39880455  0.48456423  0.28199964     0.37200
C328        C  0.38389017  0.50354477  0.29210668    -0.27100
F329        F  0.45257327  0.10184591  0.26958653    -0.19200
H330        H  0.47527173  0.06085945  0.25311010     0.16500
F331        F  0.38090229  0.44663528  0.28597049    -0.22900
H332        H  0.35905881  0.48778494  0.30345116     0.18300
C333        C  0.08579583  0.00677604  0.29280077    -0.27000
C334        C  0.11917335  0.04047176  0.28371874     0.06600
C335        C  0.11379772  0.05816921  0.26538793     0.26200
C336        C  0.07631936  0.04390647  0.25739558    -0.11500
C337        C  0.04230343  0.51026921  0.26587792    -0.25400
C338        C  0.04848438  0.99067872  0.28342741     0.37100
C339        C  0.15915914  0.05698351  0.29332451     0.06600
F340        F  0.14482311  0.08785078  0.25407792    -0.19200
H341        H  0.07342848  0.05923085  0.24385336     0.16500
F342        F  0.01863390  0.45633695  0.29054009    -0.22900
H343        H  0.08859524  0.99238742  0.30696498     0.18300
C344        C  0.18663595  0.09698724  0.29529066     0.26300
C345        C  0.22370805  0.11208807  0.30436114    -0.11400
C346        C  0.23344521  0.08799182  0.31322716    -0.25500
C347        C  0.20641898  0.04818316  0.31151883     0.37200
C348        C  0.16996993  0.03288280  0.30127236    -0.27100
F349        F  0.17686773  0.12169374  0.29015758    -0.19200
H350        H  0.24369751  0.14277875  0.30619894     0.16500
F351        F  0.21489998  0.02418118  0.32034493    -0.22900
H352        H  0.14991157  0.00209361  0.29997589     0.18300
C353        C  0.12801644  0.22148991  0.90137495    -0.27000
C354        C  0.08828188  0.19104493  0.90019127     0.06600
C355        C  0.06551272  0.19032234  0.88240542     0.26200
C356        C  0.08253525  0.21947279  0.86607695    -0.11500
C357        C  0.12224274  0.24980885  0.86742942    -0.25400
C358        C  0.14485438  0.25058608  0.88520447     0.37100
C359        C  0.07157302  0.16010250  0.91740014     0.06600
F360        F  0.02705169  0.16133899  0.88069178    -0.19200
H361        H  0.06455750  0.21891202  0.85268510     0.16500
F362        F  0.18333436  0.27951899  0.88691047    -0.22900
H363        H  0.14603128  0.22296332  0.91505126     0.18300
C364        C  0.09137465  0.14314965  0.92286913     0.26300
C365        C  0.07722381  0.11565629  0.93987381    -0.11400
C366        C  0.04258418  0.10371745  0.95161540    -0.25500
C367        C  0.02208807  0.11992242  0.94586565     0.37200
C368        C  0.03672839  0.14815128  0.92898167    -0.27100
F369        F  0.12407604  0.15255255  0.91140254    -0.19200
H370        H  0.09312269  0.10300291  0.94347836     0.16500
F371        F  0.48336946  0.10268651  0.95471366    -0.22900
H372        H  0.02116041  0.16106304  0.92516854     0.18300
C373        C  0.35681318  0.44334008  0.91484559    -0.27000
C374        C  0.31646947  0.41767056  0.91846182     0.06600
C375        C  0.30216607  0.40373235  0.94023626     0.26200
C376        C  0.32810755  0.41479088  0.95813702    -0.11500
C377        C  0.36870465  0.44024053  0.95465333    -0.25400
C378        C  0.38286097  0.45489061  0.93281108     0.37100
C379        C  0.28929067  0.40353148  0.89939286     0.06600
F380        F  0.26318186  0.37831932  0.94399144    -0.19200
H381        H  0.31641419  0.40310737  0.97473261     0.16500
F382        F  0.42184224  0.47899402  0.92859152    -0.22900
H383        H  0.36809446  0.45402589  0.89804202     0.18300
C384        C  0.26158596  0.41237680  0.89762074     0.26300
C385        C  0.23288223  0.39507696  0.88107165    -0.11400
C386        C  0.23158561  0.36891569  0.86613489    -0.25500
C387        C  0.25979283  0.36065853  0.86756107     0.37200
C388        C  0.28872477  0.37820251  0.88404255    -0.27100
F389        F  0.26178699  0.43697689  0.91223576    -0.19200
H390        H  0.21101890  0.40137405  0.88019741     0.16500
F391        F  0.25784620  0.33395356  0.85402594    -0.22900
H392        H  0.30960349  0.37072494  0.88552830     0.18300
C393        C  0.07028967  0.39074283  0.92952961    -0.27000
C394        C  0.07239525  0.39842992  0.90632423     0.06600
C395        C  0.06107801  0.42193431  0.89834777     0.26200
C396        C  0.04955291  0.43876307  0.91347226    -0.11500
C397        C  0.04814095  0.43164980  0.93667199    -0.25400
C398        C  0.05802583  0.40707708  0.94464550     0.37100
C399        C  0.08694320  0.38230614  0.89063744     0.06600
F400        F  0.06069503  0.42823288  0.87594536    -0.19200
H401        H  0.04145004  0.45725934  0.90705235     0.16500
F402        F  0.05758329  0.40035230  0.96703966    -0.22900
H403        H  0.07903448  0.37278779  0.93598353     0.18300
C404        C  0.11663891  0.40590437  0.87486546     0.26300
C405        C  0.13071209  0.39042407  0.86050086    -0.11400
C406        C  0.11591032  0.35155309  0.86197670    -0.25500
C407        C  0.08672665  0.32801660  0.87784792     0.37200
C408        C  0.07206924  0.34327133  0.89193643    -0.27100
F409        F  0.13342029  0.44419574  0.87411712    -0.19200
H410        H  0.15425132  0.40901790  0.84882988     0.16500
F411        F  0.07273314  0.29042052  0.87982181    -0.22900
H412        H  0.04933504  0.32470223  0.90401789     0.18300
C413        C  0.30359218  0.42221606  0.80883896    -0.27000
C414        C  0.31230914  0.40088365  0.79528779     0.06600
C415        C  0.28238177  0.36227164  0.79091146     0.26200
C416        C  0.24521952  0.34516088  0.80072062    -0.11500
C417        C  0.23720138  0.36621053  0.81495116    -0.25400
C418        C  0.26632305  0.40528517  0.81830011     0.37100
C419        C  0.35240266  0.41913529  0.78567687     0.06600
F420        F  0.28898625  0.34113345  0.77706493    -0.19200
H421        H  0.22305470  0.31508748  0.79779978     0.16500
F422        F  0.25882953  0.42702818  0.83091500    -0.22900
H423        H  0.32590366  0.45196377  0.81245827     0.18300
C424        C  0.37170005  0.45517495  0.77499736     0.26300
C425        C  0.40859476  0.47137397  0.76524488    -0.11400
C426        C  0.42709407  0.45217455  0.76584677    -0.25500
C427        C  0.40873088  0.41691958  0.77714185     0.37200
C428        C  0.37166439  0.40054467  0.78697903    -0.27100
F429        F  0.35423746  0.47405615  0.77307209    -0.19200
H430        H  0.42226856  0.49855993  0.75654287     0.16500
F431        F  0.42594218  0.39770389  0.77786252    -0.22900
H432        H  0.35783601  0.37314445  0.79547852     0.18300
C433        C  0.06107008  0.35255766  0.80324186    -0.27000
C434        C  0.08501133  0.38697018  0.79115989     0.06600
C435        C  0.12502597  0.40194438  0.78842529     0.26200
C436        C  0.14081681  0.38350386  0.79834661    -0.11500
C437        C  0.11711705  0.35017967  0.81131133    -0.25400
C438        C  0.07688192  0.33434965  0.81325151     0.37100
C439        C  0.06800889  0.40724427  0.78202490     0.06600
F440        F  0.14889803  0.43458097  0.77637609    -0.19200
H441        H  0.17193702  0.39627687  0.79686121     0.16500
F442        F  0.05315210  0.30200697  0.82558271    -0.22900
H443        H  0.03024035  0.34045388  0.80561705     0.18300
C444        C  0.03423060  0.38775603  0.76859537     0.26300
C445        C  0.01803248  0.40671842  0.76032909    -0.11400
C446        C  0.03530603  0.44557595  0.76499213    -0.25500
C447        C  0.06836370  0.46491317  0.77892843     0.37200
C448        C  0.08463922  0.44589146  0.78729290    -0.27100
F449        F  0.01768039  0.35071290  0.76277515    -0.19200
H450        H  0.49465009  0.39151024  0.74696722     0.16500
F451        F  0.08547563  0.00363831  0.78353364    -0.22900
H452        H  0.11028073  0.46133741  0.79789974     0.18300
C453        C  0.13084922  0.19063031  0.81203358    -0.27000
C454        C  0.09833206  0.17379994  0.79772670     0.06600
C455        C  0.08178243  0.19404675  0.79232100     0.26200
C456        C  0.09681246  0.22994331  0.80172976    -0.11500
C457        C  0.12821461  0.24584979  0.81669507    -0.25400
C458        C  0.14580073  0.22646001  0.82141980     0.37100
C459        C  0.08135242  0.13495513  0.78879383     0.06600
F460        F  0.05106773  0.17906883  0.77798815    -0.19200
H461        H  0.08317469  0.24478249  0.79793668     0.16500
F462        F  0.17705877  0.24199465  0.83538477    -0.22900
H463        H  0.14404000  0.17558096  0.81639700     0.18300
C464        C  0.10501039  0.12565553  0.77792637     0.26300
C465        C  0.08800113  0.08969067  0.76818293    -0.11400
C466        C  0.04730895  0.06288491  0.76878732    -0.25500
C467        C  0.02396754  0.07117528  0.78085951     0.37200
C468        C  0.04092797  0.10698612  0.79079664    -0.27100
F469        F  0.14417948  0.15194978  0.77565224    -0.19200
H470        H  0.10642986  0.08325646  0.75938901     0.16500
F471        F  0.98462569  0.04547424  0.78208221    -0.22900
H472        H  0.02235569  0.11323537  0.79964556     0.18300
C473        C  0.04933948  0.15298382  0.55504547    -0.27000
C474        C  0.07987570  0.16294316  0.56995346     0.06600
C475        C  0.09750588  0.14302338  0.56946456     0.26200
C476        C  0.08533106  0.11400684  0.55399651    -0.11500
C477        C  0.05506264  0.10392827  0.53873339    -0.25400
C478        C  0.03694181  0.12363361  0.53942089     0.37100
C479        C  0.09492085  0.19515788  0.58545794     0.06600
F480        F  0.12637310  0.15147301  0.58415600    -0.19200
H481        H  0.09943699  0.09901188  0.55429187     0.16500
F482        F  0.00781912  0.11500478  0.52492138    -0.22900
H483        H  0.03568403  0.16841039  0.55526372     0.18300
C484        C  0.13443127  0.22602298  0.58411495     0.26300
C485        C  0.14966477  0.25557946  0.59956654    -0.11400
C486        C  0.12583992  0.25472293  0.61661769    -0.25500
C487        C  0.08615150  0.22408668  0.61791336     0.37200
C488        C  0.07075854  0.19439452  0.60230625    -0.27100
F489        F  0.15817800  0.22761137  0.56772531    -0.19200
H490        H  0.18022150  0.27924063  0.59827090     0.16500
F491        F  0.06223990  0.22343801  0.63380999    -0.22900
H492        H  0.04023721  0.17064806  0.60348410     0.18300
C493        C  0.29419601  0.36840675  0.60493523    -0.27000
C494        C  0.30581969  0.40007458  0.59098786     0.06600
C495        C  0.28445388  0.41649949  0.59171537     0.26200
C496        C  0.25152474  0.40080603  0.60559905    -0.11500
C497        C  0.23935599  0.36866139  0.61901109    -0.25400
C498        C  0.26134572  0.35294002  0.61900887     0.37100
C499        C  0.33728994  0.41330430  0.57397284     0.06600
F500        F  0.29420557  0.44654360  0.57816534    -0.19200
H501        H  0.23560459  0.41393193  0.60597612     0.16500
F502        F  0.25046646  0.32215271  0.63216966    -0.22900
H503        H  0.31020528  0.35529662  0.60460137     0.18300
C504        C  0.36796860  0.45225154  0.57156172     0.26300
C505        C  0.39351299  0.46478807  0.55306026    -0.11400
C506        C  0.38892327  0.43869239  0.53668596    -0.25500
C507        C  0.35992212  0.39931487  0.54014667     0.37200
C508        C  0.33445795  0.38694989  0.55856198    -0.27100
F509        F  0.37265358  0.47823985  0.58682421    -0.19200
H510        H  0.41593276  0.49511506  0.55113622     0.16500
F511        F  0.35510677  0.37264819  0.52537626    -0.22900
H512        H  0.31121180  0.35678896  0.56018713     0.18300
C513        C  0.06534669  0.35245770  0.59890295    -0.27000
C514        C  0.08804157  0.37634326  0.58074694     0.06600
C515        C  0.12748317  0.38894418  0.57913549     0.26200
C516        C  0.14398161  0.37884116  0.59557788    -0.11500
C517        C  0.12183410  0.35580433  0.61401058    -0.25400
C518        C  0.08196591  0.34197762  0.61533567     0.37100
C519        C  0.07197797  0.39050672  0.56428877     0.06600
F520        F  0.15010268  0.41073548  0.56142296    -0.19200
H521        H  0.17425608  0.38889332  0.59371132     0.16500
F522        F  0.05877855  0.31732106  0.63197014    -0.22900
H523        H  0.03489608  0.34228918  0.60050183     0.18300
C524        C  0.03635336  0.36593680  0.55289384     0.26300
C525        C  0.02317041  0.38081272  0.53694368    -0.11400
C526        C  0.04552057  0.42028182  0.53201187    -0.25500
C527        C  0.08075568  0.44459995  0.54387189     0.37200
C528        C  0.09346716  0.42984219  0.55974355    -0.27100
F529        F  0.01490823  0.32761063  0.55672407    -0.19200
H530        H  0.99581237  0.36149782  0.52831086     0.16500
F531        F  0.10282988  0.48312817  0.54067078    -0.22900
H532        H  0.12038818  0.44949778  0.56869450     0.18300
C533        C  0.10324837  0.12736626  0.70426593    -0.27000
C534        C  0.08023714  0.14147941  0.69999602     0.06600
C535        C  0.03970812  0.11733009  0.70454776     0.26200
C536        C  0.02334082  0.08113320  0.71425865    -0.11500
C537        C  0.04652297  0.06758793  0.71884764    -0.25400
C538        C  0.08649298  0.09061014  0.71331225     0.37100
C539        C  0.09834631  0.18052735  0.69000007     0.06600
F540        F  0.01564290  0.12823453  0.69917071    -0.19200
H541        H  0.99254502  0.06383815  0.71849326     0.16500
F542        F  0.10948293  0.07789942  0.71716588    -0.22900
H543        H  0.13441434  0.14499534  0.70084431     0.18300
C544        C  0.08859324  0.20557444  0.69766540     0.26300
C545        C  0.10335442  0.24062451  0.68662085    -0.11400
C546        C  0.12874206  0.25179724  0.66810609    -0.25500
C547        C  0.14163974  0.22860046  0.66204188     0.37200
C548        C  0.12589927  0.19310857  0.67247553    -0.27100
F549        F  0.06526041  0.19649844  0.71601404    -0.19200
H550        H  0.09433192  0.25864909  0.69230173     0.16500
F551        F  0.16978795  0.24031398  0.64608750    -0.22900
H552        H  0.13495760  0.17518082  0.66654443     0.18300
C553        C  0.36564498  0.39863395  0.70272231    -0.27000
C554        C  0.35233769  0.42207897  0.69843355     0.06600
C555        C  0.37766049  0.46153724  0.70302374     0.26200
C556        C  0.41526245  0.47696828  0.71121380    -0.11500
C557        C  0.42794593  0.45344082  0.71606565    -0.25400
C558        C  0.40293420  0.41407953  0.71173439     0.37100
C559        C  0.31230976  0.40536573  0.68925961     0.06600
F560        F  0.36539394  0.48498421  0.70099704    -0.19200
H561        H  0.43341043  0.50698727  0.71531159     0.16500
F562        F  0.41412447  0.39048496  0.71690998    -0.22900
H563        H  0.34700769  0.36823848  0.69932600     0.18300
C564        C  0.30615821  0.42436151  0.67211673     0.26300
C565        C  0.26888589  0.40836400  0.66335470    -0.11400
C566        C  0.23744234  0.37147010  0.66973895    -0.25500
C567        C  0.24292477  0.35266662  0.68728327     0.37200
C568        C  0.27997718  0.36975350  0.69712235    -0.27100
F569        F  0.33652356  0.45709453  0.66254968    -0.19200
H570        H  0.26518304  0.42395626  0.65035371     0.16500
F571        F  0.21326917  0.31701764  0.69403742    -0.22900
H572        H  0.28362480  0.35462879  0.71048730     0.18300
C573        C  0.09658670  0.45356343  0.70608873    -0.27000
C574        C  0.07240931  0.41798069  0.69545377     0.06600
C575        C  0.03182607  0.40114823  0.69446973     0.26200
C576        C  0.01590406  0.41946743  0.70420602    -0.11500
C577        C  0.04004164  0.45433112  0.71541602    -0.25400
C578        C  0.08058696  0.47154680  0.71605435     0.37100
C579        C  0.08988852  0.39895560  0.68532482     0.06600
F580        F  0.00758736  0.36697439  0.68417950    -0.19200
H581        H  0.98452096  0.40558202  0.70395093     0.16500
F582        F  0.10424550  0.00433501  0.72866306    -0.22900
H583        H  0.12783876  0.46695697  0.70720063     0.18300
C584        C  0.12140003  0.41897609  0.67009040     0.26300
C585        C  0.13748306  0.40096472  0.66031378    -0.11400
C586        C  0.12257018  0.36267591  0.66546499    -0.25500
C587        C  0.09163648  0.34276725  0.68103514     0.37200
C588        C  0.07536201  0.36078196  0.69082527    -0.27100
F589        F  0.13581332  0.45561477  0.66406906    -0.19200
H590        H  0.16134533  0.41678943  0.64834937     0.16500
F591        F  0.07598722  0.30550799  0.68596520    -0.22900
H592        H  0.05132604  0.34490799  0.70267190     0.18300
C593        C  0.16173040  0.82732770  0.62213928     0.46700
H594        H  0.16276834  0.82722414  0.60343667    -0.02300
C595        C  0.15931168  0.82712489  0.66596709     0.46700
H596        H  0.15851551  0.82747303  0.68465038    -0.02300
C597        C  0.14135592  0.78748324  0.63267543    -0.16000
C598        C  0.20217225  0.85058120  0.63285100    -0.15800
C599        C  0.13973778  0.84350369  0.63132231    -0.16200
C600        C  0.14065070  0.78677388  0.65583397    -0.16200
C601        C  0.20132725  0.85088835  0.65598843    -0.15700
C602        C  0.13846476  0.84384245  0.65444856    -0.16000
C603        C  0.15582839  0.82305224  0.86013601     0.46700
H604        H  0.15580455  0.82513333  0.87879459    -0.02300
C605        C  0.15620569  0.81903643  0.81635607     0.46700
H606        H  0.15637891  0.81724710  0.79770493    -0.02300
C607        C  0.13752433  0.78249609  0.85166964    -0.16000
C608        C  0.13337186  0.83676347  0.84844611    -0.15800
C609        C  0.19667945  0.84669186  0.84968225    -0.16200
C610        C  0.13802820  0.78019180  0.82861790    -0.16200
C611        C  0.13347772  0.83519210  0.82541694    -0.15700
C612        C  0.19732995  0.84480535  0.82664779    -0.16000
C613        C  0.00558839  0.99158665  0.71975190     0.46700
H614        H  0.00589610  0.99328975  0.70107334    -0.02300
C615        C  0.00471047  0.98755578  0.76378303     0.46700
H616        H  0.00421172  0.98592344  0.78246776    -0.02300
C617        C  0.02758851  0.52937897  0.73197616    -0.16000
C618        C  0.46284380  0.96784652  0.72974830    -0.15800
C619        C  0.02252325  0.97015850  0.72917503    -0.16200
C620        C  0.02694948  0.52675677  0.75505444    -0.16200
C621        C  0.46150314  0.96603872  0.75281731    -0.15700
C622        C  0.02177044  0.96766489  0.75226707    -0.16000
C623        C  0.30445996  0.62606214  0.36157945     0.46700
H624        H  0.30229328  0.62488598  0.38026113    -0.02300
C625        C  0.30937858  0.62850997  0.31779046     0.46700
H626        H  0.31137515  0.62953474  0.29911433    -0.02300
C627        C  0.32472017  0.66644507  0.35174587    -0.16000
C628        C  0.32808741  0.61156292  0.35243307    -0.15800
C629        C  0.26464038  0.60256392  0.34992167    -0.16200
C630        C  0.32755745  0.66811574  0.32868379    -0.16200
C631        C  0.33014310  0.61197671  0.32934118    -0.15700
C632        C  0.26704381  0.60402419  0.32687859    -0.16000
C633        C  0.30942946  0.62828641  0.12021692     0.46700
H634        H  0.31125892  0.62665786  0.10162200    -0.02300
C635        C  0.30561845  0.63201961  0.16376844     0.46700
H636        H  0.30385936  0.63218286  0.18235791    -0.02300
C637        C  0.32964169  0.66917132  0.12878641    -0.16000
C638        C  0.26741706  0.60721409  0.12911084    -0.15800
C639        C  0.32819201  0.61153488  0.13300360    -0.16200
C640        C  0.32841428  0.67213436  0.15199137    -0.16200
C641        C  0.26503351  0.60889847  0.15213179    -0.15700
C642        C  0.32611182  0.61290007  0.15582556    -0.16000
C643        C  0.46194496  0.96689005  0.21999423     0.46700
H644        H  0.46120586  0.96666621  0.20130189    -0.02300
C645        C  0.46383621  0.96650278  0.26400816     0.46700
H646        H  0.46457395  0.96659437  0.28269661    -0.02300
C647        C  0.44100835  0.92664698  0.23037148    -0.16000
C648        C  0.00377675  0.98923398  0.22934264    -0.15800
C649        C  0.44226048  0.98473600  0.23102300    -0.16200
C650        C  0.44248104  0.92618184  0.25354834    -0.16200
C651        C  0.00553272  0.98984930  0.25256325    -0.15700
C652        C  0.44404758  0.98507920  0.25418597    -0.16000
O653        O  0.04947177  0.56494864  0.97650936    -0.79700
O654        O  0.46988162  0.89956167  0.00643292    -0.64400
O655        O  0.99750368  0.98851861  0.97140553    -1.11000
C656        C  0.42574532  0.50034340  0.02808192     1.07200
O657        O  0.40923118  0.88121170  0.00257795    -0.77600
O658        O  0.38368682  0.92210825  0.98779889    -0.65200
Ni659      Ni  0.05104550  0.52553124  0.96267159     1.27900
C660        C  0.39491141  0.94632495  0.97199654     0.86000
O661        O  0.00964304  0.93022356  0.96788580    -0.78100
O662        O  0.05096428  0.98443367  0.94799565    -0.88400
C663        C  0.43362560  0.87507013  0.01020631     0.85500
O664        O  0.07753980  0.52441728  0.98860929    -0.66600
O665        O  0.40263919  0.95977748  0.02823698    -0.85900
C666        C  0.06618082  0.50290774  0.00586744     0.86400
C667        C  0.03428266  0.94880806  0.95192414     1.07900
H668        H  0.47380139  0.96751059  0.02187728     0.39700
O669        O  0.46003420  0.95891885  0.00773339    -1.08500
O670        O  0.42779464  0.97848583  0.97206216    -0.65200
Ni671      Ni  0.47542950  0.50470363  0.99162601     1.26300
O672        O  0.03017378  0.97107897  0.00760552    -0.65400
O673        O  0.45222543  0.52008611  0.01314266    -0.77700
C674        C  0.02600937  0.57210834  0.96859625     0.85700
O675        O  0.49308546  0.54988186  0.97383898    -0.64900
Ni676      Ni  0.40687691  0.92129325  0.01505493     1.27400
Ni677      Ni  0.48571244  0.94372012  0.98832999     1.26100
H678        H  0.48202015  0.97710310  0.95738960     0.40300
O679        O  0.40840648  0.90080978  0.45707372    -0.79700
O680        O  0.50833792  0.55489061  0.51372320    -0.64400
O681        O  0.46704583  0.97092691  0.47270447    -1.11000
C682        C  0.03399944  0.93682009  0.51523061     1.07200
O683        O  0.06158009  0.56113733  0.52084391    -0.77600
O684        O  0.06488174  0.52796746  0.48273240    -0.65200
Ni685      Ni  0.41258622  0.94559549  0.46658893     1.34900
C686        C  0.05499847  0.50339678  0.46737299     0.86000
O687        O  0.46909110  0.53760404  0.47466498    -0.78100
O688        O  0.41041890  0.98836782  0.47387116    -0.88400
C689        C  0.03826022  0.57102944  0.52409233     0.85500
O690        O  0.40033303  0.92765158  0.49678848    -0.66600
O691        O  0.05894858  0.96974282  0.50733684    -0.85900
C692        C  0.40979266  0.94994604  0.51343663     0.86400
C693        C  0.43363260  0.52133439  0.46893636     1.07900
H694        H  0.48855696  0.97508137  0.52508693     0.39700
O695        O  0.00340239  0.98684448  0.50989844    -1.08500
O696        O  0.02769079  0.96779037  0.47006097    -0.65200
Ni697      Ni  0.48113878  0.94221869  0.49028406     1.26300
O698        O  0.43857575  0.98535196  0.51223832    -0.65400
O699        O  0.99855203  0.91929369  0.50896610    -0.77700
C700        C  0.42809348  0.88644757  0.45785635     0.85700
O701        O  0.45860317  0.90026598  0.46980357    -0.64900
Ni702      Ni  0.05652067  0.51476267  0.51376112     1.27400
Ni703      Ni  0.48645298  0.51298228  0.49342032     1.26100
H704        H  0.48176338  0.98043914  0.45875670     0.40300
C705        C  0.16053092  0.54815297  0.03887875    -0.27000
C706        C  0.14666139  0.53988663  0.06117955     0.06600
C707        C  0.10607497  0.51805673  0.06516958     0.26200
C708        C  0.07996802  0.50504778  0.04707441    -0.11500
C709        C  0.09391530  0.51415712  0.02474771    -0.25400
C710        C  0.13456000  0.53556988  0.02082740     0.37100
C711        C  0.17503131  0.55438679  0.07997320     0.06600
F712        F  0.09171565  0.50903090  0.08651494    -0.19200
H713        H  0.04881918  0.48863296  0.05054701     0.16500
F714        F  0.14786013  0.04481553  0.99880801    -0.22900
H715        H  0.19170916  0.56492544  0.03544917     0.18300
C716        C  0.20378134  0.54676950  0.08050584     0.26300
C717        C  0.23285216  0.56338028  0.09688950    -0.11400
C718        C  0.23380386  0.58758990  0.11327161    -0.25500
C719        C  0.20487893  0.59513625  0.11289201     0.37200
C720        C  0.17550297  0.57829013  0.09647577    -0.27100
F721        F  0.20399418  0.52351860  0.06498032    -0.19200
H722        H  0.25519993  0.55784183  0.09645090     0.16500
F723        F  0.20642609  0.62061326  0.12734571    -0.22900
H724        H  0.15410997  0.58521137  0.09603457     0.18300
C725        C  0.39082952  0.73542328  0.08071690    -0.27000
C726        C  0.37534696  0.75708915  0.07798207     0.06600
C727        C  0.34503104  0.75037420  0.09240567     0.26200
C728        C  0.33076616  0.72242121  0.10938922    -0.11500
C729        C  0.34630555  0.70068961  0.11198219    -0.25400
C730        C  0.37622522  0.70724380  0.09736661     0.37100
C731        C  0.39074559  0.78608222  0.05977118     0.06600
F732        F  0.32950091  0.77099158  0.09015414    -0.19200
H733        H  0.30728745  0.71731331  0.12030617     0.16500
F734        F  0.39150516  0.68645713  0.09918483    -0.22900
H735        H  0.41385011  0.73989240  0.06961931     0.18300
C736        C  0.43089977  0.81551564  0.05842686     0.26300
C737        C  0.44517559  0.84307303  0.04130337    -0.11400
C738        C  0.41965531  0.84185312  0.02530684    -0.25500
C739        C  0.37967408  0.81130052  0.02610760     0.37200
C740        C  0.36545644  0.78380891  0.04326195    -0.27100
F741        F  0.45601744  0.81860396  0.07428420    -0.19200
H742        H  0.47591543  0.86643691  0.04123844     0.16500
F743        F  0.35414942  0.80829212  0.01056136    -0.22900
H744        H  0.33460071  0.76075096  0.04373143     0.18300
C745        C  0.41465243  0.57256211  0.05819652    -0.27000
C746        C  0.39600463  0.55240384  0.07820441     0.06600
C747        C  0.38974130  0.51673339  0.08205275     0.26200
C748        C  0.40006404  0.50065624  0.06569835    -0.11500
C749        C  0.41707379  0.51977548  0.04516518    -0.25400
C750        C  0.42539424  0.55652591  0.04177815     0.37100
C751        C  0.38001926  0.56690688  0.09408745     0.06600
F752        F  0.37326058  0.49720871  0.10158128    -0.19200
H753        H  0.39447252  0.47288281  0.06915764     0.16500
F754        F  0.44207941  0.07409252  0.02364529    -0.22900
H755        H  0.41956175  0.60009620  0.05493363     0.18300
C756        C  0.40333374  0.60440241  0.10243451     0.26300
C757        C  0.38665327  0.61816885  0.11619018    -0.11400
C758        C  0.34653230  0.59511336  0.12117952    -0.25500
C759        C  0.32369098  0.55712709  0.11386725     0.37200
C760        C  0.34034068  0.54316415  0.10036588    -0.27100
F761        F  0.44202129  0.62761430  0.09722474    -0.19200
H762        H  0.40485220  0.64703274  0.12262904     0.16500
F763        F  0.28531243  0.53366479  0.11965277    -0.22900
H764        H  0.32191786  0.51409390  0.09421880     0.18300
C765        C  0.34709084  0.74877545  0.19457951    -0.27000
C766        C  0.37761821  0.78275815  0.18415289     0.06600
C767        C  0.39407060  0.77939716  0.16428451     0.26200
C768        C  0.38021983  0.74344120  0.15536917    -0.11500
C769        C  0.34690710  0.70970083  0.16432769    -0.25400
C770        C  0.33140418  0.71293678  0.18470154     0.37100
C771        C  0.39292286  0.82103816  0.19447406     0.06600
F772        F  0.42273846  0.81073044  0.15278736    -0.19200
H773        H  0.39572753  0.74254175  0.14106617     0.16500
F774        F  0.30089499  0.68194475  0.19531526    -0.22900
H775        H  0.33504432  0.74968137  0.21054021     0.18300
C776        C  0.36804733  0.82831248  0.20614792     0.26300
C777        C  0.38362818  0.86298980  0.21746183    -0.11400
C778        C  0.42376402  0.89191178  0.21627342    -0.25500
C779        C  0.44803522  0.88621294  0.20309624     0.37200
C780        C  0.43313345  0.85071413  0.19319994    -0.27100
F781        F  0.32866436  0.80224177  0.20654941    -0.19200
H782        H  0.36438510  0.86730448  0.22722751     0.16500
F783        F  0.48687106  0.91393607  0.20127696    -0.22900
H784        H  0.45369952  0.84636809  0.18519393     0.18300
C785        C  0.33098892  0.53493069  0.18243019    -0.27000
C786        C  0.37069519  0.55483565  0.18841519     0.06600
C787        C  0.39447664  0.59504079  0.18588575     0.26200
C788        C  0.37901854  0.61443387  0.17693553    -0.11500
C789        C  0.33959148  0.59426795  0.17058606    -0.25400
C790        C  0.31555425  0.55439093  0.17371937     0.37100
C791        C  0.38693140  0.53358640  0.19732997     0.06600
F792        F  0.43272737  0.61559666  0.19192736    -0.19200
H793        H  0.39821580  0.64504816  0.17406909     0.16500
F794        F  0.27759052  0.53400065  0.16714123    -0.22900
H795        H  0.31207759  0.50402930  0.18383368     0.18300
C796        C  0.36884647  0.00837504  0.21712419     0.26300
C797        C  0.38528222  0.98992764  0.22587027    -0.11400
C798        C  0.42181201  0.99910932  0.21821378    -0.25500
C799        C  0.43913951  0.52315649  0.19838397     0.37200
C800        C  0.42245656  0.54113090  0.18898027    -0.27100
F801        F  0.33532736  0.00091706  0.22651453    -0.19200
H802        H  0.36997259  0.96929784  0.23934170     0.16500
F803        F  0.47384773  0.53217015  0.19019192    -0.22900
H804        H  0.43761996  0.56139322  0.17529788     0.18300
C805        C  0.09738503  0.50391659  0.20903939    -0.27000
C806        C  0.11280204  0.53598450  0.19487175     0.06600
C807        C  0.09007475  0.55032697  0.19043220     0.26200
C808        C  0.05347400  0.53390391  0.20081658    -0.11500
C809        C  0.03845913  0.00175667  0.21481882    -0.25400
C810        C  0.06074102  0.98667305  0.21839820     0.37100
C811        C  0.15263546  0.55445044  0.18499842     0.06600
F812        F  0.10339648  0.58042025  0.17616938    -0.19200
H813        H  0.03760253  0.54670986  0.19809352     0.16500
F814        F  0.04810520  0.95705048  0.23294853    -0.22900
H815        H  0.11424069  0.49227885  0.21264606     0.18300
C816        C  0.18106182  0.59400008  0.18735247     0.26300
C817        C  0.21785365  0.61132484  0.17709605    -0.11400
C818        C  0.22727403  0.58957936  0.16466705    -0.25500
C819        C  0.19938767  0.54984421  0.16295294     0.37200
C820        C  0.16246220  0.53249685  0.17306887    -0.27100
F821        F  0.17328794  0.61588492  0.19960534    -0.19200
H822        H  0.23829162  0.64201293  0.17802055     0.16500
F823        F  0.20765031  0.52792695  0.15116768    -0.22900
H824        H  0.14116321  0.50196933  0.17116954     0.18300
C825        C  0.17286653  0.58287446  0.37807812    -0.27000
C826        C  0.16267530  0.55197185  0.39228576     0.06600
C827        C  0.18457601  0.53615279  0.39126615     0.26200
C828        C  0.21697146  0.55197773  0.37680496    -0.11500
C829        C  0.22765682  0.58341879  0.36302839    -0.25400
C830        C  0.20517544  0.59862319  0.36361005     0.37100
C831        C  0.13268100  0.53972037  0.41009347     0.06600
F832        F  0.17616855  0.50706405  0.40529706    -0.19200
H833        H  0.23447627  0.54043423  0.37681206     0.16500
F834        F  0.21604749  0.63034273  0.35144327    -0.22900
H835        H  0.15668402  0.59578543  0.37889396     0.18300
C836        C  0.13842607  0.56586782  0.42666454     0.26300
C837        C  0.11223490  0.55400586  0.44465334    -0.11400
C838        C  0.07960461  0.51574440  0.44662597    -0.25500
C839        C  0.07382355  0.98854487  0.42955408     0.37200
C840        C  0.09961558  0.50175173  0.41148489    -0.27100
F841        F  0.17056387  0.60255327  0.42606390    -0.19200
H842        H  0.11832045  0.57479494  0.45744085     0.16500
F843        F  0.04282383  0.95136269  0.43083529    -0.22900
H844        H  0.09535086  0.97934798  0.39902229     0.18300
C845        C  0.33330557  0.72841087  0.39965325    -0.27000
C846        C  0.37258568  0.75953588  0.39787451     0.06600
C847        C  0.39611206  0.76054068  0.38050310     0.26200
C848        C  0.38025608  0.73057297  0.36511690    -0.11500
C849        C  0.34071418  0.69973083  0.36670190    -0.25400
C850        C  0.31739033  0.69880882  0.38416639     0.37100
C851        C  0.38759303  0.79178931  0.41339422     0.06600
F852        F  0.43402998  0.79071836  0.37819579    -0.19200
H853        H  0.39914159  0.73100136  0.35238325     0.16500
F854        F  0.27913792  0.66937778  0.38623248    -0.22900
H855        H  0.31484296  0.72723415  0.41302337     0.18300
C856        C  0.36774867  0.80944025  0.41529468     0.26300
C857        C  0.38079569  0.83933288  0.43018707    -0.11400
C858        C  0.41427189  0.85279089  0.44343542    -0.25500
C859        C  0.43427606  0.83501328  0.44156762     0.37200
C860        C  0.42090088  0.80464535  0.42656404    -0.27100
F861        F  0.33612901  0.79832053  0.40229966    -0.19200
H862        H  0.36468776  0.85231072  0.43097651     0.16500
F863        F  0.46666569  0.84696559  0.45398770    -0.22900
H864        H  0.43629988  0.79097994  0.42531466     0.18300
C865        C  0.36840677  0.53814743  0.43423421    -0.27000
C866        C  0.39562619  0.56807429  0.41999835     0.06600
C867        C  0.43583582  0.58609450  0.42392485     0.26200
C868        C  0.44838447  0.57252721  0.44098378    -0.11500
C869        C  0.42100122  0.54098129  0.45443940    -0.25400
C870        C  0.38078839  0.52483282  0.45136168     0.37100
C871        C  0.38142226  0.58002408  0.40119206     0.06600
F872        F  0.46284845  0.61540141  0.41050483    -0.19200
H873        H  0.47943590  0.58543863  0.44287745     0.16500
F874        F  0.35692143  0.00036761  0.46622239    -0.22900
H875        H  0.34129351  0.03038718  0.43399292     0.18300
C876        C  0.35617023  0.55353344  0.38479613     0.26300
C877        C  0.33994841  0.56414989  0.36829588    -0.11400
C878        C  0.34855546  0.60120226  0.36803062    -0.25500
C879        C  0.37471987  0.62794227  0.38401090     0.37200
C880        C  0.39112569  0.61744055  0.40035432    -0.27100
F881        F  0.34692212  0.51730823  0.38493173    -0.19200
H882        H  0.31972857  0.54315511  0.35619524     0.16500
F883        F  0.38415316  0.66420628  0.38397926    -0.22900
H884        H  0.41043389  0.63818258  0.41284150     0.18300
C885        C  0.42669871  0.83209506  0.27082302    -0.27000
C886        C  0.39799113  0.81853833  0.28782293     0.06600
C887        C  0.38841081  0.84372423  0.29568785     0.26200
C888        C  0.40350523  0.87906324  0.28490341    -0.11500
C889        C  0.42988516  0.89094500  0.26687249    -0.25400
C890        C  0.44349944  0.86831484  0.26115640     0.37100
C891        C  0.37893304  0.77868160  0.29717359     0.06600
F892        F  0.36526135  0.83484355  0.31409319    -0.19200
H893        H  0.39422223  0.89691345  0.29051606     0.16500
F894        F  0.47347600  0.88138611  0.24634207    -0.22900
H895        H  0.43606822  0.81457372  0.26465649     0.18300
C896        C  0.33906661  0.75614071  0.30368211     0.26300
C897        C  0.32248932  0.72002764  0.31356045    -0.11400
C898        C  0.34413004  0.70421828  0.31571266    -0.25500
C899        C  0.38274970  0.72493810  0.30762806     0.37200
C900        C  0.40025064  0.76211764  0.29903035    -0.27100
F901        F  0.31556433  0.76830663  0.30004175    -0.19200
H902        H  0.29265392  0.70445607  0.31972511     0.16500
F903        F  0.40424187  0.71010053  0.30928892    -0.22900
H904        H  0.43084039  0.77812591  0.29427069     0.18300
C905        C  0.40612663  0.59599366  0.30879919    -0.27000
C906        C  0.38270806  0.56152119  0.29694896     0.06600
C907        C  0.34249525  0.54552228  0.29450514     0.26200
C908        C  0.32601072  0.56323823  0.30423590    -0.11500
C909        C  0.34918822  0.59681231  0.31672865    -0.25400
C910        C  0.38951413  0.61350425  0.31868622     0.37100
C911        C  0.40022407  0.54230897  0.28724007     0.06600
F912        F  0.32274252  0.01742639  0.28162537    -0.19200
H913        H  0.29485000  0.55007926  0.30265377     0.16500
F914        F  0.41261238  0.64638885  0.33041168    -0.22900
H915        H  0.43714509  0.60886011  0.31083519     0.18300
C916        C  0.43271954  0.56221047  0.27266924     0.26300
C917        C  0.44758742  0.54324382  0.26260684    -0.11400
C918        C  0.43241140  0.00591175  0.26825206    -0.25500
C919        C  0.40000959  0.98606813  0.28282173     0.37200
C920        C  0.38517384  0.00513369  0.29286523    -0.27100
F921        F  0.44877781  0.59942939  0.26724197    -0.19200
H922        H  0.47171929  0.55870170  0.25077221     0.16500
F923        F  0.38090948  0.94777751  0.28592533    -0.22900
H924        H  0.35956821  0.98918748  0.30364445     0.18300
C925        C  0.08578577  0.50816790  0.29227455    -0.27000
C926        C  0.11830029  0.54306990  0.28373159     0.06600
C927        C  0.11180418  0.56182870  0.26654611     0.26200
C928        C  0.07405804  0.54648211  0.25866027    -0.11500
C929        C  0.04343114  0.00886778  0.26526770    -0.25400
C930        C  0.04830946  0.49156105  0.28321484     0.37100
C931        C  0.15849513  0.55921200  0.29265940     0.06600
F932        F  0.14199070  0.59356798  0.25609663    -0.19200
H933        H  0.07009116  0.56186133  0.24562742     0.16500
F934        F  0.01792477  0.95652196  0.29147305    -0.22900
H935        H  0.08944401  0.49315505  0.30569708     0.18300
C936        C  0.18552807  0.59894350  0.29596911     0.26300
C937        C  0.22239654  0.61330784  0.30499569    -0.11400
C938        C  0.23225239  0.58857133  0.31244507    -0.25500
C939        C  0.20589653  0.54908970  0.30915791     0.37200
C940        C  0.16972098  0.53465105  0.29888727    -0.27100
F941        F  0.17551468  0.62387336  0.29232372    -0.19200
H942        H  0.24209337  0.64371690  0.30790761     0.16500
F943        F  0.21467320  0.52451450  0.31651001    -0.22900
H944        H  0.15007681  0.50407166  0.29635428     0.18300
C945        C  0.12532891  0.72230203  0.90231416    -0.27000
C946        C  0.08599678  0.69115146  0.90062708     0.06600
C947        C  0.06371584  0.68970816  0.88232986     0.26200
C948        C  0.08090797  0.71876685  0.86592210    -0.11500
C949        C  0.12029862  0.74979777  0.86770299    -0.25400
C950        C  0.14230964  0.75137160  0.88611132     0.37100
C951        C  0.06937108  0.66006484  0.91775237     0.06600
F952        F  0.02561694  0.66004500  0.88016462    -0.19200
H953        H  0.06327195  0.71752980  0.85209339     0.16500
F954        F  0.18040395  0.78094702  0.88838829    -0.22900
H955        H  0.14294151  0.72424570  0.91637178     0.18300
C956        C  0.08944256  0.64337049  0.92315591     0.26300
C957        C  0.07538339  0.61566079  0.94004569    -0.11400
C958        C  0.04062174  0.60332114  0.95178430    -0.25500
C959        C  0.02000677  0.61947943  0.94620396     0.37200
C960        C  0.03445701  0.64779863  0.92935409    -0.27100
F961        F  0.12234613  0.65327848  0.91172744    -0.19200
H962        H  0.09145177  0.60315673  0.94356809     0.16500
F963        F  0.49193891  0.61061376  0.95872118    -0.22900
H964        H  0.01873322  0.66057043  0.92559466     0.18300
C965        C  0.34952525  0.95122912  0.91762518    -0.27000
C966        C  0.31880097  0.91259458  0.91494178     0.06600
C967        C  0.31278561  0.88565670  0.93117401     0.26200
C968        C  0.33739123  0.89711170  0.94969181    -0.11500
C969        C  0.36860529  0.93568119  0.95245591    -0.25400
C970        C  0.37445740  0.96280941  0.93619115     0.37100
C971        C  0.29179981  0.90007295  0.89578736     0.06600
F972        F  0.28245214  0.84828936  0.92937141    -0.19200
H973        H  0.33205032  0.87550004  0.96182289     0.16500
F974        F  0.40383281  0.00044076  0.93828199    -0.22900
H975        H  0.35425393  0.97233552  0.90527793     0.18300
C976        C  0.26866243  0.91425260  0.89294370     0.26300
C977        C  0.23823915  0.89728093  0.87738341    -0.11400
C978        C  0.23143402  0.86690126  0.86411045    -0.25500
C979        C  0.25570510  0.85393508  0.86609688     0.37200
C980        C  0.28570359  0.87044264  0.88191869    -0.27100
F981        F  0.27387365  0.94277017  0.90617982    -0.19200
H982        H  0.21940825  0.90725239  0.87596538     0.16500
F983        F  0.24878623  0.82382299  0.85378152    -0.22900
H984        H  0.30326621  0.85916431  0.88399604     0.18300
C985        C  0.06750939  0.88874741  0.92936825    -0.27000
C986        C  0.06997503  0.89682820  0.90618836     0.06600
C987        C  0.05793616  0.91973066  0.89821758     0.26200
C988        C  0.04559720  0.93582471  0.91332589    -0.11500
C989        C  0.04405953  0.92855787  0.93650424    -0.25400
C990        C  0.05436343  0.90430564  0.94447615     0.37100
C991        C  0.08522592  0.88140130  0.89049001     0.06600
F992        F  0.05770453  0.92621856  0.87583318    -0.19200
H993        H  0.03721064  0.95410531  0.90692114     0.16500
F994        F  0.05363139  0.89729340  0.96685268    -0.22900
H995        H  0.07666985  0.87112304  0.93581169     0.18300
C996        C  0.11473005  0.90535550  0.87468349     0.26300
C997        C  0.12933003  0.89035651  0.86031671    -0.11400
C998        C  0.11506214  0.85161153  0.86176147    -0.25500
C999        C  0.08587065  0.82771915  0.87751864     0.37200
C1000       C  0.07088118  0.84251007  0.89168999    -0.27100
F1001       F  0.13068621  0.94348743  0.87382580    -0.19200
H1002       H  0.15269930  0.90917302  0.84861071     0.16500
F1003       F  0.07203908  0.79013943  0.87922054    -0.22900
H1004       H  0.04816099  0.82363679  0.90369874     0.18300
C1005       C  0.30074102  0.91911404  0.80717962    -0.27000
C1006       C  0.30865902  0.89746351  0.79338342     0.06600
C1007       C  0.27822570  0.85907806  0.78888543     0.26200
C1008       C  0.24128838  0.84247893  0.79889249    -0.11500
C1009       C  0.23412533  0.86395210  0.81331520    -0.25400
C1010       C  0.26371186  0.90285676  0.81663657     0.37100
C1011       C  0.34860940  0.91545161  0.78379019     0.06600
F1012       F  0.28413301  0.83768625  0.77481795    -0.19200
H1013       H  0.21868328  0.81251637  0.79599465     0.16500
F1014       F  0.25695646  0.92509350  0.82929151    -0.22900
H1015       H  0.32349652  0.94865206  0.81097962     0.18300
C1016       C  0.36859726  0.95226485  0.77409996     0.26300
C1017       C  0.40628567  0.96939242  0.76545261    -0.11400
C1018       C  0.42457784  0.95001943  0.76565047    -0.25500
C1019       C  0.40511069  0.91351432  0.77550528     0.37200
C1020       C  0.36747339  0.89645901  0.78465302    -0.27100
F1021       F  0.35112087  0.97113192  0.77208731    -0.19200
H1022       H  0.42051387  0.99731061  0.75767005     0.16500
F1023       F  0.42192482  0.89391214  0.77553363    -0.22900
H1024       H  0.35300637  0.86835194  0.79233040     0.18300
C1025       C  0.06007702  0.85336446  0.80320964    -0.27000
C1026       C  0.08441630  0.88801316  0.79140777     0.06600
C1027       C  0.12443595  0.90290596  0.78892824     0.26200
C1028       C  0.13974949  0.88386934  0.79859596    -0.11500
C1029       C  0.11560890  0.85015715  0.81116934    -0.25400
C1030       C  0.07546559  0.83467868  0.81308746     0.37100
C1031       C  0.06770556  0.90840134  0.78209787     0.06600
F1032       F  0.14876886  0.93602710  0.77738531    -0.19200
H1033       H  0.17085476  0.89647909  0.79726106     0.16500
F1034       F  0.05144597  0.80225731  0.82529536    -0.22900
H1035       H  0.02925388  0.84141717  0.80544109     0.18300
C1036       C  0.03449461  0.88907485  0.76822898     0.26300
C1037       C  0.01847014  0.90803341  0.75974348    -0.11400
C1038       C  0.03543772  0.94675973  0.76458572    -0.25500
C1039       C  0.06809628  0.96603746  0.77882753     0.37200
C1040       C  0.08412954  0.94696742  0.78746898    -0.27100
F1041       F  0.01840740  0.85221936  0.76216658    -0.19200
H1042       H  0.49224897  0.88979864  0.74888341     0.16500
F1043       F  0.08576594  0.50248653  0.78370061    -0.22900
H1044       H  0.10944938  0.96231859  0.79832260     0.18300
C1045       C  0.12785448  0.68913631  0.81239991    -0.27000
C1046       C  0.09627544  0.67286022  0.79737030     0.06600
C1047       C  0.08073640  0.69386868  0.79135578     0.26200
C1048       C  0.09532699  0.72944602  0.80106294    -0.11500
C1049       C  0.12558127  0.74462028  0.81675127    -0.25400
C1050       C  0.14270152  0.72491411  0.82184149     0.37100
C1051       C  0.07878081  0.63364272  0.78864501     0.06600
F1052       F  0.05138553  0.68002854  0.77613957    -0.19200
H1053       H  0.08229926  0.74470268  0.79681768     0.16500
F1054       F  0.17348876  0.74012779  0.83614577    -0.22900
H1055       H  0.14035026  0.67370966  0.81738721     0.18300
C1056       C  0.10230452  0.62173929  0.78080980     0.26300
C1057       C  0.08495185  0.58522644  0.77173488    -0.11400
C1058       C  0.04423383  0.56075190  0.76952690    -0.25500
C1059       C  0.02070555  0.57184578  0.77812497     0.37200
C1060       C  0.03784650  0.60770178  0.78795369    -0.27100
F1061       F  0.14194228  0.64599957  0.78065202    -0.19200
H1062       H  0.10338199  0.57677798  0.76532788     0.16500
F1063       F  0.98128304  0.54891946  0.77597819    -0.22900
H1064       H  0.01900467  0.61555830  0.79452874     0.18300
C1065       C  0.04615289  0.65140182  0.55746738    -0.27000
C1066       C  0.07857716  0.66242959  0.57102976     0.06600
C1067       C  0.09718900  0.64357295  0.56903039     0.26200
C1068       C  0.08409314  0.61461676  0.55340960    -0.11500
C1069       C  0.05186446  0.60343131  0.53951729    -0.25400
C1070       C  0.03277745  0.62203811  0.54171783     0.37100
C1071       C  0.09404214  0.69430455  0.58687150     0.06600
F1072       F  0.12776227  0.65279230  0.58248271    -0.19200
H1073       H  0.09903494  0.60046232  0.55255491     0.16500
F1074       F  0.00174199  0.61231284  0.52858907    -0.22900
H1075       H  0.03165990  0.66594450  0.55886693     0.18300
C1076       C  0.13333561  0.72561692  0.58519050     0.26300
C1077       C  0.14859645  0.75516164  0.60065070    -0.11400
C1078       C  0.12500760  0.75396781  0.61798110    -0.25500
C1079       C  0.08562947  0.72278816  0.61970625     0.37200
C1080       C  0.07023884  0.69304695  0.60414996    -0.27100
F1081       F  0.15675456  0.72787995  0.56834900    -0.19200
H1082       H  0.17891533  0.77922079  0.59902132     0.16500
F1083       F  0.06189396  0.72174692  0.63588240    -0.22900
H1084       H  0.03990217  0.66898071  0.60561051     0.18300
C1085       C  0.28939493  0.86387586  0.60206718    -0.27000
C1086       C  0.30128948  0.89588889  0.58838282     0.06600
C1087       C  0.28172056  0.91400886  0.59042195     0.26200
C1088       C  0.25053426  0.89994138  0.60554585    -0.11500
C1089       C  0.23797202  0.86742894  0.61872507    -0.25400
C1090       C  0.25810543  0.84985777  0.61726056     0.37100
C1091       C  0.33217121  0.90888479  0.57095589     0.06600
F1092       F  0.29159241  0.94428772  0.57704955    -0.19200
H1093       H  0.23626991  0.91459760  0.60702031     0.16500
F1094       F  0.24684375  0.81864236  0.63009176    -0.22900
H1095       H  0.30407877  0.84951158  0.60076477     0.18300
C1096       C  0.36435175  0.94736588  0.56955819     0.26300
C1097       C  0.39040817  0.96022651  0.55131563    -0.11400
C1098       C  0.38491628  0.93500281  0.53408442    -0.25500
C1099       C  0.35390382  0.89590818  0.53627462     0.37200
C1100       C  0.32792875  0.88316286  0.55453132    -0.27100
F1101       F  0.37024334  0.97265430  0.58569016    -0.19200
H1102       H  0.41422690  0.99026680  0.55036959     0.16500
F1103       F  0.34784178  0.86999733  0.52052505    -0.22900
H1104       H  0.30346280  0.85334842  0.55536451     0.18300
C1105       C  0.06687709  0.85526436  0.60016000    -0.27000
C1106       C  0.09035293  0.87993398  0.58245889     0.06600
C1107       C  0.13003086  0.89323778  0.58153394     0.26200
C1108       C  0.14564044  0.88193646  0.59783565    -0.11500
C1109       C  0.12250317  0.85749743  0.61558474    -0.25400
C1110       C  0.08274619  0.84403864  0.61660896     0.37100
C1111       C  0.07433000  0.89324645  0.56545511     0.06600
F1112       F  0.15360764  0.91646892  0.56449697    -0.19200
H1113       H  0.17591068  0.89196701  0.59632784     0.16500
F1114       F  0.05891319  0.81888804  0.63288363    -0.22900
H1115       H  0.03629908  0.84483309  0.60128883     0.18300
C1116       C  0.04003537  0.86762918  0.55322170     0.26300
C1117       C  0.02652883  0.88144271  0.53680645    -0.11400
C1118       C  0.04735150  0.92088852  0.53220696    -0.25500
C1119       C  0.08136720  0.94628432  0.54478313     0.37200
C1120       C  0.09440471  0.93254514  0.56114741    -0.27100
F1121       F  0.02030391  0.82931692  0.55668394    -0.19200
H1122       H  0.00022507  0.86135758  0.52750717     0.16500
F1123       F  0.10173971  0.98479459  0.54179145    -0.22900
H1124       H  0.12035557  0.95287702  0.57065503     0.18300
C1125       C  0.10351737  0.62851086  0.70796189    -0.27000
C1126       C  0.08013285  0.64118331  0.70125496     0.06600
C1127       C  0.03913755  0.61541340  0.70317740     0.26200
C1128       C  0.02233473  0.57884164  0.71255226    -0.11500
C1129       C  0.04572328  0.56663327  0.71970581    -0.25400
C1130       C  0.08652711  0.59157795  0.71693536     0.37100
C1131       C  0.09838029  0.68044465  0.69142333     0.06600
F1132       F  0.01516583  0.62523065  0.69556084    -0.19200
H1133       H  0.99097946  0.56031274  0.71458683     0.16500
F1134       F  0.10998978  0.58036799  0.72315378    -0.22900
H1135       H  0.13508549  0.64741021  0.70647168     0.18300
C1136       C  0.08672068  0.70439589  0.69823582     0.26300
C1137       C  0.10153477  0.73956830  0.68725419    -0.11400
C1138       C  0.12842777  0.75173551  0.66941872    -0.25500
C1139       C  0.14261291  0.72936715  0.66400595     0.37200
C1140       C  0.12740464  0.69404647  0.67467598    -0.27100
F1141       F  0.06115363  0.69391233  0.71559666    -0.19200
H1142       H  0.09114763  0.75676523  0.69229930     0.16500
F1143       F  0.17125376  0.74161902  0.64830834    -0.22900
H1144       H  0.13773876  0.67684779  0.66941637     0.18300
C1145       C  0.36665823  0.89898658  0.70075709    -0.27000
C1146       C  0.35189066  0.92154986  0.69844695     0.06600
C1147       C  0.37555930  0.96024261  0.70482345     0.26200
C1148       C  0.41318335  0.97594584  0.71299918    -0.11500
C1149       C  0.42735612  0.95316413  0.71601766    -0.25400
C1150       C  0.40399117  0.91457457  0.70968496     0.37100
C1151       C  0.31207787  0.90479667  0.68929243     0.06600
F1152       F  0.36152708  0.98234920  0.70446337    -0.19200
H1153       H  0.43003120  0.00526092  0.71860923     0.16500
F1154       F  0.41667595  0.89169612  0.71298570    -0.22900
H1155       H  0.34906721  0.86915484  0.69590706     0.18300
C1156       C  0.30596358  0.92415370  0.67241859     0.26300
C1157       C  0.26886305  0.90786031  0.66335654    -0.11400
C1158       C  0.23757812  0.87086853  0.66968680    -0.25500
C1159       C  0.24305016  0.85190857  0.68712944     0.37200
C1160       C  0.28004936  0.86892144  0.69692338    -0.27100
F1161       F  0.33627943  0.95776107  0.66361185    -0.19200
H1162       H  0.26505845  0.92349031  0.65042931     0.16500
F1163       F  0.21341582  0.81621819  0.69383540    -0.22900
H1164       H  0.28393078  0.85367566  0.71010488     0.18300
C1165       C  0.09684111  0.95376023  0.70694728    -0.27000
C1166       C  0.07305972  0.91930499  0.69519501     0.06600
C1167       C  0.03294019  0.90378953  0.69272804     0.26200
C1168       C  0.01689615  0.92199581  0.70247147    -0.11500
C1169       C  0.04053731  0.95552968  0.71495802    -0.25400
C1170       C  0.08079015  0.97177376  0.71672274     0.37100
C1171       C  0.09055456  0.90004834  0.68556512     0.06600
F1172       F  0.00932229  0.87103652  0.68099169    -0.19200
H1173       H  0.98576220  0.90902576  0.70115629     0.16500
F1174       F  0.10447190  0.50511469  0.72702835    -0.22900
H1175       H  0.12775874  0.96619475  0.70907050     0.18300
C1176       C  0.12342874  0.92030648  0.67129698     0.26300
C1177       C  0.13968690  0.90211777  0.66204533    -0.11400
C1178       C  0.12354846  0.86343467  0.66678959    -0.25500
C1179       C  0.09139655  0.84335246  0.68154806     0.37200
C1180       C  0.07492512  0.86154081  0.69078789    -0.27100
F1181       F  0.13894305  0.95733174  0.66564153    -0.19200
H1182       H  0.16444527  0.91801040  0.65065491     0.16500
F1183       F  0.07474496  0.80577868  0.68610084    -0.22900
H1184       H  0.04985635  0.84555214  0.70195069     0.18300
C1185       C  0.66146686  0.32479153  0.62245945     0.46700
H1186       H  0.66277543  0.32471291  0.60376410    -0.02300
C1187       C  0.65863206  0.32454539  0.66630314     0.46700
H1188       H  0.65758619  0.32473155  0.68498546    -0.02300
C1189       C  0.64060828  0.28494954  0.63291974    -0.16000
C1190       C  0.70172416  0.34767326  0.63342132    -0.15800
C1191       C  0.63966152  0.34122249  0.63151816    -0.16200
C1192       C  0.63961551  0.28426741  0.65604115    -0.16200
C1193       C  0.70072830  0.34793806  0.65654165    -0.15700
C1194       C  0.63838924  0.34175308  0.65464699    -0.16000
C1195       C  0.65472565  0.32107826  0.86040733     0.46700
H1196       H  0.65405093  0.32275642  0.87907050    -0.02300
C1197       C  0.65654938  0.31797661  0.81665414     0.46700
H1198       H  0.65740149  0.31663618  0.79800584    -0.02300
C1199       C  0.63755462  0.28087993  0.85175370    -0.16000
C1200       C  0.63180366  0.33402201  0.84855549    -0.15800
C1201       C  0.69584944  0.34576672  0.85043007    -0.16200
C1202       C  0.63875000  0.27891236  0.82869395    -0.16200
C1203       C  0.63256295  0.33298203  0.82551951    -0.15700
C1204       C  0.69736415  0.34434499  0.82740395    -0.16000
C1205       C  0.50529316  0.48976684  0.71904274     0.46700
H1206       H  0.50570160  0.49141103  0.70036038    -0.02300
C1207       C  0.50417738  0.48588637  0.76307826     0.46700
H1208       H  0.50354259  0.48436917  0.78176579    -0.02300
C1209       C  0.52759111  0.02754047  0.73117272    -0.16000
C1210       C  0.96334195  0.46854941  0.73072625    -0.15800
C1211       C  0.52255524  0.46869995  0.72860580    -0.16200
C1212       C  0.52637566  0.02555140  0.75429756    -0.16200
C1213       C  0.96263825  0.46644620  0.75379036    -0.15700
C1214       C  0.52155384  0.46608061  0.75172019    -0.16000
C1215       C  0.80447884  0.12770335  0.36223751     0.46700
H1216       H  0.80228493  0.12658103  0.38092331    -0.02300
C1217       C  0.80960231  0.13013042  0.31843927     0.46700
H1218       H  0.81168807  0.13115151  0.29976794    -0.02300
C1219       C  0.82461669  0.16801724  0.35238975    -0.16000
C1220       C  0.82813166  0.11327185  0.35315162    -0.15800
C1221       C  0.76479553  0.10402600  0.35053362    -0.16200
C1222       C  0.82763597  0.16973583  0.32934085    -0.16200
C1223       C  0.83044524  0.11371374  0.33007608    -0.15700
C1224       C  0.76721493  0.10547056  0.32750444    -0.16000
C1225       C  0.80973866  0.12900538  0.12030977     0.46700
H1226       H  0.81205545  0.12726777  0.10176774    -0.02300
C1227       C  0.80505907  0.13311358  0.16373899     0.46700
H1228       H  0.80289239  0.13341479  0.18230058    -0.02300
C1229       C  0.82991736  0.16998652  0.12870139    -0.16000
C1230       C  0.76749424  0.10809078  0.12879020    -0.15800
C1231       C  0.82821260  0.11235342  0.13353825    -0.16200
C1232       C  0.82818275  0.17314024  0.15186590    -0.16200
C1233       C  0.76472142  0.10987486  0.15179400    -0.15700
C1234       C  0.82574910  0.11397453  0.15631697    -0.16000
C1235       C  0.96181367  0.46832329  0.22021205     0.46700
H1236       H  0.96093096  0.46821567  0.20152379    -0.02300
C1237       C  0.96402474  0.46775869  0.26420389     0.46700
H1238       H  0.96501985  0.46781386  0.28288681    -0.02300
C1239       C  0.94136085  0.42801247  0.23048245    -0.16000
C1240       C  0.50294336  0.48773569  0.22895498    -0.15800
C1241       C  0.94181053  0.48579330  0.23145981    -0.16200
C1242       C  0.94304762  0.42744948  0.25366764    -0.16200
C1243       C  0.50355059  0.48828530  0.25216328    -0.15700
C1244       C  0.94379118  0.48607976  0.25462118    -0.16000
O1245       O  0.54908718  0.06287666  0.97622968    -0.79700
O1246       O  0.97108232  0.40123974  0.00672879    -0.64400
O1247       O  0.49810409  0.48692823  0.97146817    -1.11000
C1248       C  0.92574910  0.00180123  0.02858346     1.07200
O1249       O  0.91046711  0.38317796  0.00346355    -0.77600
O1250       O  0.88384913  0.42364486  0.98961127    -0.65200
Ni1251     Ni  0.54972935  0.02332419  0.96193305     1.27900
C1252       C  0.89464443  0.44689392  0.97329923     0.86000
O1253       O  0.50979440  0.42835113  0.96813086    -0.78100
O1254       O  0.55149801  0.48253162  0.94833000    -0.88400
C1255       C  0.93488922  0.37674072  0.01063756     0.85500
O1256       O  0.57660754  0.02179236  0.98747096    -0.66600
O1257       O  0.90507633  0.46205495  0.02978646    -0.85900
C1258       C  0.56539600  0.00125226  0.00513248     0.86400
C1259       C  0.53458964  0.44690039  0.95225388     1.07900
H1260       H  0.97568010  0.47008274  0.02212956     0.39700
O1261       O  0.96140651  0.46093456  0.00816636    -1.08500
O1262       O  0.92793453  0.47869890  0.97242333    -0.65200
Ni1263     Ni  0.97481564  0.00616714  0.99169976     1.26300
O1264       O  0.53021290  0.46919299  0.00777849    -0.65400
O1265       O  0.95171434  0.02141309  0.01337547    -0.77700
C1266       C  0.52588986  0.07052646  0.96856853     0.85700
O1267       O  0.99196285  0.05119345  0.97396422    -0.64900
Ni1268     Ni  0.90868519  0.42337269  0.01630409     1.27400
Ni1269     Ni  0.98677877  0.44546979  0.98866630     1.26100
H1270       H  0.98340329  0.47899067  0.95763582     0.40300
O1271       O  0.90556065  0.40130592  0.45797801    -0.79700
O1272       O  0.00940342  0.05537558  0.51347315    -0.64400
O1273       O  0.96371500  0.47228441  0.47286796    -1.11000
C1274       C  0.53503863  0.43769216  0.51694600     1.07200
O1275       O  0.56304575  0.05724959  0.52294940    -0.77600
O1276       O  0.56761459  0.02423523  0.48480432    -0.65200
Ni1277     Ni  0.90877255  0.44553114  0.46768988     1.34900
C1278       C  0.55744850  0.99991354  0.46921117     0.86000
O1279       O  0.97060662  0.03929923  0.47424704    -0.78100
O1280       O  0.90554445  0.48758130  0.47527736    -0.88400
C1281       C  0.54031939  0.06812860  0.52510688     0.85500
O1282       O  0.89864292  0.42811467  0.49798498    -0.66600
O1283       O  0.56026549  0.47088656  0.50938203    -0.85900
C1284       C  0.90843609  0.45045018  0.51463700     0.86400
C1285       C  0.93521286  0.02366293  0.46854583     1.07900
H1286       H  0.98871364  0.47815578  0.52473109     0.39700
O1287       O  0.50409751  0.48733508  0.51052434    -1.08500
O1288       O  0.52845023  0.46710341  0.47111963    -0.65200
Ni1289     Ni  0.98015727  0.44496490  0.48990805     1.26300
O1290       O  0.93640673  0.48611624  0.51314286    -0.65400
O1291       O  0.49971249  0.42013340  0.51046032    -0.77700
C1292       C  0.92622224  0.38796710  0.45822165     0.85700
O1293       O  0.95734695  0.40261342  0.46970664    -0.64900
Ni1294     Ni  0.55702237  0.01036623  0.51575670     1.27400
Ni1295     Ni  0.98694105  0.01370151  0.49290662     1.26100
H1296       H  0.97765174  0.48189704  0.45868811     0.40300
C1297       C  0.66077607  0.05067828  0.03762141    -0.27000
C1298       C  0.64742891  0.04171925  0.06000086     0.06600
C1299       C  0.60689607  0.01824901  0.06421971     0.26200
C1300       C  0.58034051  0.00401387  0.04629253    -0.11500
C1301       C  0.59370324  0.01354511  0.02387441    -0.25400
C1302       C  0.63435803  0.03694926  0.01974016     0.37100
C1303       C  0.67620919  0.05668067  0.07865430     0.06600
F1304       F  0.59302373  0.00875412  0.08564360    -0.19200
H1305       H  0.54925190  0.98629287  0.04998647     0.16500
F1306       F  0.64810399  0.54194944  0.99984990    -0.22900
H1307       H  0.69187968  0.06880382  0.03399239     0.18300
C1308       C  0.70595052  0.05040140  0.07870386     0.26300
C1309       C  0.73449599  0.06634731  0.09542601    -0.11400
C1310       C  0.73423088  0.08889971  0.11255127    -0.25500
C1311       C  0.70449589  0.09540393  0.11248830     0.37200
C1312       C  0.67551096  0.07900088  0.09581309    -0.27100
F1313       F  0.70748932  0.02886843  0.06247500    -0.19200
H1314       H  0.75734626  0.06150302  0.09470085     0.16500
F1315       F  0.70471325  0.11940282  0.12758180    -0.22900
H1316       H  0.65335916  0.08493475  0.09577998     0.18300
C1317       C  0.89074948  0.23377343  0.07967961    -0.27000
C1318       C  0.87666733  0.25668498  0.07705396     0.06600
C1319       C  0.84752030  0.25163767  0.09189225     0.26200
C1320       C  0.83306429  0.22419477  0.10916846    -0.11500
C1321       C  0.84726792  0.20131177  0.11172323    -0.25400
C1322       C  0.87598576  0.20612959  0.09668401     0.37100
C1323       C  0.89226724  0.28544696  0.05866760     0.06600
F1324       F  0.83329372  0.27342173  0.08975927    -0.19200
H1325       H  0.81040882  0.22035517  0.12033636     0.16500
F1326       F  0.88980538  0.18403273  0.09836664    -0.22900
H1327       H  0.91277151  0.23685917  0.06825654     0.18300
C1328       C  0.93269358  0.31365366  0.05656113     0.26300
C1329       C  0.94683176  0.34201732  0.03989095    -0.11400
C1330       C  0.92089680  0.34274821  0.02510728    -0.25500
C1331       C  0.88061594  0.31317144  0.02651769     0.37200
C1332       C  0.86658465  0.28492914  0.04317553    -0.27100
F1333       F  0.95826376  0.31499843  0.07139247    -0.19200
H1334       H  0.97785689  0.36450971  0.03931373     0.16500
F1335       F  0.85452404  0.31203127  0.01220904    -0.22900
H1336       H  0.83546116  0.26286138  0.04420334     0.18300
C1337       C  0.91746866  0.07523568  0.05953088    -0.27000
C1338       C  0.89753556  0.05449907  0.07915561     0.06600
C1339       C  0.88988305  0.01817736  0.08262183     0.26200
C1340       C  0.89967500  0.00186605  0.06613881    -0.11500
C1341       C  0.91768528  0.02145683  0.04587051    -0.25400
C1342       C  0.92781461  0.05900056  0.04300352     0.37100
C1343       C  0.88115579  0.06879971  0.09487917     0.06600
F1344       F  0.87230973  0.99815045  0.10186368    -0.19200
H1345       H  0.89280201  0.97351287  0.06928798     0.16500
F1346       F  0.94223276  0.57553240  0.02280773    -0.22900
H1347       H  0.92360447  0.10335618  0.05660529     0.18300
C1348       C  0.90443883  0.10571364  0.10404770     0.26300
C1349       C  0.88735943  0.11907068  0.11781758    -0.11400
C1350       C  0.84696797  0.09612404  0.12206363    -0.25500
C1351       C  0.82409797  0.05872307  0.11387320     0.37200
C1352       C  0.84107481  0.04522873  0.10029211    -0.27100
F1353       F  0.94343222  0.12874689  0.09961764    -0.19200
H1354       H  0.90539972  0.14764740  0.12470499     0.16500
F1355       F  0.78534876  0.03542866  0.11885353    -0.22900
H1356       H  0.82264565  0.01663671  0.09345552     0.18300
C1357       C  0.84744308  0.25013796  0.19435664    -0.27000
C1358       C  0.87856210  0.28402080  0.18413613     0.06600
C1359       C  0.89534046  0.28029263  0.16449552     0.26200
C1360       C  0.88083053  0.24422085  0.15546081    -0.11500
C1361       C  0.84691486  0.21077052  0.16417230    -0.25400
C1362       C  0.83131772  0.21427965  0.18441718     0.37100
C1363       C  0.89378239  0.32243965  0.19440645     0.06600
F1364       F  0.92500224  0.31132476  0.15329109    -0.19200
H1365       H  0.89633200  0.24298134  0.14126366     0.16500
F1366       F  0.80031271  0.18353431  0.19488581    -0.22900
H1367       H  0.83524400  0.25106825  0.21024442     0.18300
C1368       C  0.86883926  0.32951666  0.20623666     0.26300
C1369       C  0.88426143  0.36413453  0.21759595    -0.11400
C1370       C  0.92426533  0.39336418  0.21625328    -0.25500
C1371       C  0.94854686  0.38800434  0.20281478     0.37200
C1372       C  0.93388115  0.35248543  0.19295380    -0.27100
F1373       F  0.82948535  0.30334113  0.20676586    -0.19200
H1374       H  0.86495978  0.36816608  0.22751840     0.16500
F1375       F  0.98727504  0.41600350  0.20082406    -0.22900
H1376       H  0.95464481  0.34847657  0.18491445     0.18300
C1377       C  0.83163879  0.03766704  0.18478189    -0.27000
C1378       C  0.87123540  0.05830321  0.19113530     0.06600
C1379       C  0.89447313  0.09844927  0.18824572     0.26200
C1380       C  0.87870653  0.11703217  0.17846528    -0.11500
C1381       C  0.83950162  0.09609388  0.17157641    -0.25400
C1382       C  0.81592822  0.05630383  0.17513301     0.37100
C1383       C  0.88815066  0.03775379  0.20026929     0.06600
F1384       F  0.93254073  0.11970298  0.19467235    -0.19200
H1385       H  0.89754073  0.14760749  0.17538287     0.16500
F1386       F  0.77820562  0.03519250  0.16808983    -0.22900
H1387       H  0.81313117  0.00679499  0.18650173     0.18300
C1388       C  0.86855793  0.50994511  0.21747179     0.26300
C1389       C  0.88492311  0.49141480  0.22633269    -0.11400
C1390       C  0.92151822  0.50054246  0.21878584    -0.25500
C1391       C  0.94053202  0.02749049  0.20079445     0.37200
C1392       C  0.92364969  0.04550449  0.19172032    -0.27100
F1393       F  0.83479777  0.50224113  0.22664147    -0.19200
H1394       H  0.86954943  0.47080287  0.23981886     0.16500
F1395       F  0.97524398  0.03680777  0.19243182    -0.22900
H1396       H  0.93857024  0.06585038  0.17804844     0.18300
C1397       C  0.59760607  0.00358923  0.20850484    -0.27000
C1398       C  0.61285872  0.03616831  0.19481157     0.06600
C1399       C  0.59010659  0.05065161  0.19096665     0.26200
C1400       C  0.55338988  0.03351098  0.20127839    -0.11500
C1401       C  0.53842199  0.50098089  0.21507675    -0.25400
C1402       C  0.56093796  0.48626981  0.21909346     0.37100
C1403       C  0.65250862  0.05488473  0.18475335     0.06600
F1404       F  0.60351471  0.08157941  0.17739861    -0.19200
H1405       H  0.53742162  0.04633919  0.19906052     0.16500
F1406       F  0.54842508  0.45701837  0.23391766    -0.22900
H1407       H  0.61461019  0.99198721  0.21172139     0.18300
C1408       C  0.68098242  0.09432700  0.18744570     0.26300
C1409       C  0.71762897  0.11183977  0.17702834    -0.11400
C1410       C  0.72687721  0.09035828  0.16417874    -0.25500
C1411       C  0.69895386  0.05069607  0.16214326     0.37200
C1412       C  0.66211019  0.03318883  0.17233902    -0.27100
F1413       F  0.67343651  0.11590171  0.20020981    -0.19200
H1414       H  0.73808676  0.14247446  0.17818680     0.16500
F1415       F  0.70714553  0.02899749  0.15004809    -0.22900
H1416       H  0.64073808  0.00272930  0.17019233     0.18300
C1417       C  0.67133187  0.07991418  0.37859559    -0.27000
C1418       C  0.66309474  0.04995964  0.39309823     0.06600
C1419       C  0.68670749  0.03600418  0.39215665     0.26200
C1420       C  0.71896750  0.05290881  0.37757358    -0.11500
C1421       C  0.72786129  0.08360952  0.36364040    -0.25400
C1422       C  0.70361450  0.09683701  0.36405753     0.37100
C1423       C  0.63345895  0.03703941  0.41117313     0.06600
F1424       F  0.68019091  0.00787228  0.40643044    -0.19200
H1425       H  0.73783031  0.04288134  0.37764951     0.16500
F1426       F  0.71274097  0.12784976  0.35170489    -0.22900
H1427       H  0.65372779  0.09132187  0.37930170     0.18300
C1428       C  0.63761873  0.06348903  0.42704614     0.26300
C1429       C  0.61206190  0.05123960  0.44537909    -0.11400
C1430       C  0.58170498  0.01231235  0.44836666    -0.25500
C1431       C  0.57441218  0.48698752  0.43039025     0.37200
C1432       C  0.60263356  0.99827328  0.41363135    -0.27100
F1433       F  0.66772554  0.10101413  0.42544305    -0.19200
H1434       H  0.61676198  0.07234008  0.45757541     0.16500
F1435       F  0.54484136  0.44937742  0.43255516    -0.22900
H1436       H  0.59519881  0.47763442  0.39961857     0.18300
C1437       C  0.83209504  0.23030620  0.39976117    -0.27000
C1438       C  0.87167627  0.26092543  0.39851838     0.06600
C1439       C  0.89575238  0.26146652  0.38169867     0.26200
C1440       C  0.88015138  0.23158598  0.36627840    -0.11500
C1441       C  0.84038037  0.20122950  0.36734092    -0.25400
C1442       C  0.81648168  0.20068066  0.38428455     0.37100
C1443       C  0.88653190  0.29331274  0.41389014     0.06600
F1444       F  0.93398156  0.29116456  0.37993867    -0.19200
H1445       H  0.89936295  0.23168044  0.35392228     0.16500
F1446       F  0.77798522  0.17161953  0.38580576    -0.22900
H1447       H  0.81320878  0.22956521  0.41268511     0.18300
C1448       C  0.86790446  0.31225416  0.41462830     0.26300
C1449       C  0.88081999  0.34234228  0.42935667    -0.11400
C1450       C  0.91286866  0.35458213  0.44365029    -0.25500
C1451       C  0.93182606  0.33568088  0.44281716     0.37200
C1452       C  0.91860977  0.30516152  0.42795900    -0.27100
F1453       F  0.83761470  0.30214181  0.40068955    -0.19200
H1454       H  0.86574231  0.35638951  0.42922695     0.16500
F1455       F  0.96287895  0.34650902  0.45622666    -0.22900
H1456       H  0.93311673  0.29055410  0.42754307     0.18300
C1457       C  0.87002077  0.04319969  0.43637604    -0.27000
C1458       C  0.89626418  0.07052181  0.42060462     0.06600
C1459       C  0.93648823  0.08648215  0.42270170     0.26200
C1460       C  0.94974628  0.07324760  0.43953324    -0.11500
C1461       C  0.92305155  0.04407588  0.45450382    -0.25400
C1462       C  0.88315353  0.03021090  0.45323577     0.37100
C1463       C  0.88105556  0.08176077  0.40201819     0.06600
F1464       F  0.96256435  0.11319857  0.40770754    -0.19200
H1465       H  0.98051134  0.08422293  0.44001584     0.16500
F1466       F  0.84980910  0.49462412  0.46411574    -0.22900
H1467       H  0.83452935  0.52477039  0.43177926     0.18300
C1468       C  0.85267676  0.05413791  0.38714488     0.26300
C1469       C  0.83658388  0.06466275  0.37052471    -0.11400
C1470       C  0.84814578  0.10264642  0.36881194    -0.25500
C1471       C  0.87667098  0.13023823  0.38355202     0.37200
C1472       C  0.89328282  0.11990542  0.39984413    -0.27100
F1473       F  0.84030201  0.01696698  0.38887389    -0.19200
H1474       H  0.81425574  0.04303954  0.35946830     0.16500
F1475       F  0.88818481  0.16716521  0.38234707    -0.22900
H1476       H  0.91479262  0.14144648  0.41126864     0.18300
C1477       C  0.92686105  0.33290962  0.27085683    -0.27000
C1478       C  0.89929030  0.32020719  0.28841920     0.06600
C1479       C  0.89070885  0.34593196  0.29659550     0.26200
C1480       C  0.90565673  0.38112106  0.28565261    -0.11500
C1481       C  0.93073052  0.39219951  0.26700376    -0.25400
C1482       C  0.94343214  0.36890438  0.26088972     0.37100
C1483       C  0.88011644  0.28052174  0.29795211     0.06600
F1484       F  0.86849414  0.33754521  0.31538351    -0.19200
H1485       H  0.89716472  0.39943111  0.29159787     0.16500
F1486       F  0.97247251  0.38114878  0.24552274    -0.22900
H1487       H  0.93547172  0.31484370  0.26453548     0.18300
C1488       C  0.84014081  0.25813150  0.30417880     0.26300
C1489       C  0.82312007  0.22182780  0.31390376    -0.11400
C1490       C  0.84466683  0.20596971  0.31643145    -0.25500
C1491       C  0.88361634  0.22680474  0.30886139     0.37200
C1492       C  0.90136186  0.26396839  0.30016884    -0.27100
F1493       F  0.81704885  0.27074075  0.30040930    -0.19200
H1494       H  0.79303135  0.20613589  0.31966493     0.16500
F1495       F  0.90508494  0.21201144  0.31102723    -0.22900
H1496       H  0.93203778  0.28001184  0.29557052     0.18300
C1497       C  0.90696451  0.09758825  0.31080953    -0.27000
C1498       C  0.88415438  0.06378511  0.29831094     0.06600
C1499       C  0.84423398  0.04832082  0.29496398     0.26200
C1500       C  0.82738542  0.06586323  0.30450271    -0.11500
C1501       C  0.84992739  0.09876056  0.31765267    -0.25400
C1502       C  0.89002945  0.11495481  0.32044801     0.37100
C1503       C  0.90211061  0.04483815  0.28882688     0.06600
F1504       F  0.82266925  0.51715974  0.28180714    -0.19200
H1505       H  0.79641611  0.05308564  0.30223668     0.16500
F1506       F  0.91264383  0.14729679  0.33270280    -0.22900
H1507       H  0.93776851  0.11007480  0.31350068     0.18300
C1508       C  0.93524649  0.06517115  0.27475125     0.26300
C1509       C  0.95067765  0.04655589  0.26490232    -0.11400
C1510       C  0.93261271  0.50728610  0.26881332    -0.25500
C1511       C  0.90183614  0.48809311  0.28451651     0.37200
C1512       C  0.88692711  0.50712860  0.29455773    -0.27100
F1513       F  0.95132461  0.10246228  0.26951459    -0.19200
H1514       H  0.97514603  0.06229991  0.25330808     0.16500
F1515       F  0.88433692  0.45034735  0.28889390    -0.22900
H1516       H  0.86239216  0.49159267  0.30612172     0.18300
C1517       C  0.58509790  0.00709766  0.29312720    -0.27000
C1518       C  0.61785682  0.04162757  0.28436794     0.06600
C1519       C  0.61178215  0.05970757  0.26657132     0.26200
C1520       C  0.57418179  0.04450128  0.25853572    -0.11500
C1521       C  0.54072404  0.50826328  0.26534436    -0.25400
C1522       C  0.54776590  0.99030735  0.28374450     0.37100
C1523       C  0.65794901  0.05827833  0.29364189     0.06600
F1524       F  0.64227166  0.09062665  0.25571495    -0.19200
H1525       H  0.57057436  0.05978428  0.24528249     0.16500
F1526       F  0.51640746  0.45531912  0.29095916    -0.22900
H1527       H  0.58845296  0.99253784  0.30696647     0.18300
C1528       C  0.68493564  0.09822171  0.29619963     0.26300
C1529       C  0.72205453  0.11328459  0.30508503    -0.11400
C1530       C  0.73224362  0.08910331  0.31312119    -0.25500
C1531       C  0.70577799  0.04939055  0.31078736     0.37200
C1532       C  0.66930648  0.03418763  0.30069731    -0.27100
F1533       F  0.67466995  0.12278815  0.29187175    -0.19200
H1534       H  0.74171720  0.14388264  0.30743654     0.16500
F1535       F  0.71477034  0.02537605  0.31891641    -0.22900
H1536       H  0.64963201  0.00345204  0.29886482     0.18300
C1537       C  0.62507604  0.22105261  0.90252952    -0.27000
C1538       C  0.58591755  0.18958897  0.90066217     0.06600
C1539       C  0.56372633  0.18797616  0.88224243     0.26200
C1540       C  0.58091421  0.21705592  0.86585718    -0.11500
C1541       C  0.62021485  0.24818368  0.86774824    -0.25400
C1542       C  0.64208876  0.24999534  0.88628635     0.37100
C1543       C  0.56938715  0.15847403  0.91777134     0.06600
F1544       F  0.52573546  0.15814964  0.87991710    -0.19200
H1545       H  0.56338564  0.21570957  0.85193028     0.16500
F1546       F  0.68012295  0.27968722  0.88862880    -0.22900
H1547       H  0.64258299  0.22335130  0.91674104     0.18300
C1548       C  0.59070547  0.14349437  0.92421202     0.26300
C1549       C  0.57661163  0.11585296  0.94112310    -0.11400
C1550       C  0.54053482  0.10173358  0.95178452    -0.25500
C1551       C  0.51856810  0.11592069  0.94503394     0.37200
C1552       C  0.53312972  0.14433889  0.92827640    -0.27100
F1553       F  0.62489289  0.15494578  0.91377524    -0.19200
H1554       H  0.59375483  0.10480581  0.94548239     0.16500
F1555       F  0.98839082  0.10896534  0.95670847    -0.22900
H1556       H  0.51632699  0.15565757  0.92371780     0.18300
C1557       C  0.84350823  0.45057775  0.92136426    -0.27000
C1558       C  0.81571289  0.41142651  0.91749408     0.06600
C1559       C  0.81344619  0.38437652  0.93232046     0.26200
C1560       C  0.83891214  0.39632556  0.95049537    -0.11500
C1561       C  0.86726842  0.43545331  0.95426855    -0.25400
C1562       C  0.86921457  0.46260965  0.93957658     0.37100
C1563       C  0.78844616  0.39849029  0.89834249     0.06600
F1564       F  0.78605530  0.34633945  0.92947359    -0.19200
H1565       H  0.83668299  0.37476509  0.96151345     0.16500
F1566       F  0.89537900  0.50068169  0.94300928    -0.22900
H1567       H  0.84547910  0.47180689  0.91016054     0.18300
C1568       C  0.76410522  0.41139709  0.89569239     0.26300
C1569       C  0.73470257  0.39488299  0.87946658    -0.11400
C1570       C  0.72998200  0.36617789  0.86537547    -0.25500
C1571       C  0.75535228  0.35449319  0.86725545     0.37200
C1572       C  0.78441115  0.37060324  0.88365416    -0.27100
F1573       F  0.76727794  0.43831187  0.90959204    -0.19200
H1574       H  0.71498625  0.40383362  0.87818474     0.16500
F1575       F  0.75046364  0.32594399  0.85417663    -0.22900
H1576       H  0.80306310  0.36048704  0.88537582     0.18300
C1577       C  0.56777930  0.38679267  0.93003470    -0.27000
C1578       C  0.57056832  0.39504353  0.90687564     0.06600
C1579       C  0.55898603  0.41825237  0.89880023     0.26200
C1580       C  0.54634878  0.43416503  0.91379097    -0.11500
C1581       C  0.54437440  0.42664175  0.93694714    -0.25400
C1582       C  0.55458532  0.40239778  0.94504278     0.37100
C1583       C  0.58547602  0.37934716  0.89122923     0.06600
F1584       F  0.55958170  0.42528707  0.87642583    -0.19200
H1585       H  0.53820347  0.45260484  0.90732473     0.16500
F1586       F  0.55378971  0.39552429  0.96744474    -0.22900
H1587       H  0.57672740  0.36902175  0.93652723     0.18300
C1588       C  0.61515840  0.40320155  0.87551369     0.26300
C1589       C  0.62876710  0.38782055  0.86075505    -0.11400
C1590       C  0.61354890  0.34884594  0.86184689    -0.25500
C1591       C  0.58448861  0.32508636  0.87771375     0.37200
C1592       C  0.57026840  0.34023889  0.89217864    -0.27100
F1593       F  0.63223570  0.44155886  0.87512984    -0.19200
H1594       H  0.65228397  0.40652662  0.84909717     0.16500
F1595       F  0.57023972  0.28738803  0.87933285    -0.22900
H1596       H  0.54751082  0.32150838  0.90420916     0.18300
C1597       C  0.80143952  0.41968956  0.80885785    -0.27000
C1598       C  0.81041870  0.39813136  0.79573279     0.06600
C1599       C  0.78056998  0.35943024  0.79149612     0.26200
C1600       C  0.74312421  0.34258319  0.80086641    -0.11500
C1601       C  0.73479972  0.36394795  0.81456945    -0.25400
C1602       C  0.76395667  0.40301757  0.81790258     0.37100
C1603       C  0.85063589  0.41649747  0.78625809     0.06600
F1604       F  0.78750091  0.33792820  0.77822774    -0.19200
H1605       H  0.72099820  0.31245393  0.79808872     0.16500
F1606       F  0.75633385  0.42497816  0.83019005    -0.22900
H1607       H  0.82370940  0.44946338  0.81244739     0.18300
C1608       C  0.86971509  0.45248074  0.77554939     0.26300
C1609       C  0.90697687  0.46928433  0.76623552    -0.11400
C1610       C  0.92602184  0.45063493  0.76705271    -0.25500
C1611       C  0.90764707  0.41514703  0.77813081     0.37200
C1612       C  0.87028602  0.39829307  0.78773272    -0.27100
F1613       F  0.85164247  0.47069743  0.77309369    -0.19200
H1614       H  0.92037300  0.49640058  0.75751732     0.16500
F1615       F  0.92507426  0.39613406  0.77881780    -0.22900
H1616       H  0.85655130  0.37084369  0.79616019     0.18300
C1617       C  0.55888512  0.35128374  0.80366186    -0.27000
C1618       C  0.58306388  0.38555890  0.79151834     0.06600
C1619       C  0.62282231  0.39986262  0.78847804     0.26200
C1620       C  0.63821489  0.38086617  0.79814686    -0.11500
C1621       C  0.61437680  0.34767633  0.81120866    -0.25400
C1622       C  0.57431202  0.33255413  0.81348095     0.37100
C1623       C  0.56641362  0.40600615  0.78219936     0.06600
F1624       F  0.64680044  0.43234563  0.77632890    -0.19200
H1625       H  0.66919548  0.39313842  0.79640724     0.16500
F1626       F  0.55038840  0.30037633  0.82590440    -0.22900
H1627       H  0.52817373  0.33963468  0.80612569     0.18300
C1628       C  0.53457355  0.38731568  0.76735157     0.26300
C1629       C  0.51884887  0.40642513  0.75860916    -0.11400
C1630       C  0.53477173  0.44474078  0.76416741    -0.25500
C1631       C  0.56556751  0.46307469  0.77973817     0.37200
C1632       C  0.58143707  0.44389398  0.78853887    -0.27100
F1633       F  0.51949972  0.35092385  0.76069806    -0.19200
H1634       H  0.99249624  0.39131329  0.74964021     0.16500
F1635       F  0.58003020  0.99917814  0.78645932    -0.22900
H1636       H  0.60550619  0.45859748  0.80029214     0.18300
C1637       C  0.62548503  0.18596398  0.81312303    -0.27000
C1638       C  0.59657148  0.17199307  0.79650440     0.06600
C1639       C  0.58391350  0.19491655  0.78929424     0.26200
C1640       C  0.59877209  0.23037538  0.79931380    -0.11500
C1641       C  0.62627213  0.24335788  0.81662060    -0.25400
C1642       C  0.64051322  0.22147955  0.82297750     0.37100
C1643       C  0.57874251  0.13304413  0.78739787     0.06600
F1644       F  0.55709917  0.18296576  0.77263484    -0.19200
H1645       H  0.58794426  0.24718919  0.79404907     0.16500
F1646       F  0.66875889  0.23432363  0.83884141    -0.22900
H1647       H  0.63573546  0.16891652  0.81891863     0.18300
C1648       C  0.60206052  0.12077166  0.77988174     0.26300
C1649       C  0.58454321  0.08425882  0.77077013    -0.11400
C1650       C  0.54381562  0.05999013  0.76845719    -0.25500
C1651       C  0.52047052  0.07144391  0.77690110     0.37200
C1652       C  0.53781887  0.10759967  0.78640111    -0.27100
F1653       F  0.64171803  0.14465571  0.78029678    -0.19200
H1654       H  0.60284762  0.07547503  0.76465908     0.16500
F1655       F  0.48101770  0.04839132  0.77516138    -0.22900
H1656       H  0.51924497  0.11599198  0.79268029     0.18300
C1657       C  0.54868589  0.15073106  0.55596569    -0.27000
C1658       C  0.57812604  0.15968768  0.57149807     0.06600
C1659       C  0.59463219  0.13872506  0.57166961     0.26200
C1660       C  0.58236208  0.10955165  0.55628350    -0.11500
C1661       C  0.55320307  0.10047533  0.54042059    -0.25400
C1662       C  0.53623826  0.12126859  0.54040719     0.37100
C1663       C  0.59323221  0.19188234  0.58702302     0.06600
F1664       F  0.62249949  0.14635289  0.58691597    -0.19200
H1665       H  0.59549683  0.09366375  0.55706897     0.16500
F1666       F  0.50836833  0.11370215  0.52520644    -0.22900
H1667       H  0.53596207  0.16701746  0.55565084     0.18300
C1668       C  0.63284938  0.22251341  0.58584290     0.26300
C1669       C  0.64811999  0.25202206  0.60134274    -0.11400
C1670       C  0.62421640  0.25135056  0.61826870    -0.25500
C1671       C  0.58449019  0.22077932  0.61950702     0.37200
C1672       C  0.56906131  0.19115922  0.60384432    -0.27100
F1673       F  0.65663755  0.22395237  0.56953893    -0.19200
H1674       H  0.67869762  0.27561944  0.60008273     0.16500
F1675       F  0.56052003  0.22020847  0.63532701    -0.22900
H1676       H  0.53848384  0.16752177  0.60493638     0.18300
C1677       C  0.78996529  0.36226464  0.60353505    -0.27000
C1678       C  0.80253010  0.39505909  0.59047943     0.06600
C1679       C  0.78294270  0.41314365  0.59258436     0.26200
C1680       C  0.75072796  0.39798670  0.60698542    -0.11500
C1681       C  0.73764676  0.36480001  0.61956755    -0.25400
C1682       C  0.75791230  0.34738496  0.61817422     0.37100
C1683       C  0.83334839  0.40822810  0.57310402     0.06600
F1684       F  0.79376666  0.44440039  0.57990764    -0.19200
H1685       H  0.73609550  0.41232093  0.60842373     0.16500
F1686       F  0.74604104  0.31551670  0.63049997    -0.22900
H1687       H  0.80464155  0.34790847  0.60209316     0.18300
C1688       C  0.86597168  0.44650343  0.57208230     0.26300
C1689       C  0.89138930  0.45976881  0.55351356    -0.11400
C1690       C  0.88474308  0.43506645  0.53567223    -0.25500
C1691       C  0.85351076  0.39601270  0.53762371     0.37200
C1692       C  0.82815869  0.38294124  0.55613519    -0.27100
F1693       F  0.87273299  0.47119479  0.58882705    -0.19200
H1694       H  0.91551761  0.48971021  0.55278545     0.16500
F1695       F  0.84640789  0.37049830  0.52133631    -0.22900
H1696       H  0.80330362  0.35327410  0.55671190     0.18300
C1697       C  0.56645837  0.35288565  0.60071367    -0.27000
C1698       C  0.58970731  0.37738165  0.58290545     0.06600
C1699       C  0.62917703  0.39007982  0.58155384     0.26200
C1700       C  0.64497683  0.37872384  0.59769419    -0.11500
C1701       C  0.62218198  0.35481895  0.61569954    -0.25400
C1702       C  0.58249334  0.34157879  0.61699917     0.37100
C1703       C  0.57389851  0.39154323  0.56635375     0.06600
F1704       F  0.65241690  0.41304560  0.56434468    -0.19200
H1705       H  0.67518281  0.38849373  0.59595578     0.16500
F1706       F  0.55892494  0.31670375  0.63345403    -0.22900
H1707       H  0.53601008  0.34281927  0.60211288     0.18300
C1708       C  0.53958056  0.36663554  0.55397377     0.26300
C1709       C  0.52659889  0.38133469  0.53782085    -0.11400
C1710       C  0.54796230  0.42096213  0.53363812    -0.25500
C1711       C  0.58191230  0.44563480  0.54642426     0.37200
C1712       C  0.59442192  0.43101998  0.56253965    -0.27100
F1713       F  0.51936958  0.32818402  0.55699975    -0.19200
H1714       H  0.50027954  0.36178047  0.52838208     0.16500
F1715       F  0.60279033  0.48425034  0.54384162    -0.22900
H1716       H  0.62041355  0.45079106  0.57218695     0.18300
C1717       C  0.60293619  0.12628692  0.70704505    -0.27000
C1718       C  0.57904696  0.13790155  0.69949655     0.06600
C1719       C  0.53810128  0.11115076  0.70032876     0.26200
C1720       C  0.52173733  0.07492109  0.70995509    -0.11500
C1721       C  0.54558751  0.06413236  0.71842445    -0.25400
C1722       C  0.58637863  0.08958028  0.71614564     0.37100
C1723       C  0.59686349  0.17725871  0.69014849     0.06600
F1724       F  0.51380313  0.11970754  0.69151321    -0.19200
H1725       H  0.49034045  0.05553805  0.71113655     0.16500
F1726       F  0.61017548  0.07904055  0.72287864    -0.22900
H1727       H  0.63451327  0.14584899  0.70619830     0.18300
C1728       C  0.58266761  0.19944159  0.69614977     0.26300
C1729       C  0.59770599  0.23502298  0.68575958    -0.11400
C1730       C  0.62729945  0.24926811  0.66940711    -0.25500
C1731       C  0.64361199  0.22858767  0.66476638     0.37200
C1732       C  0.62826490  0.19287094  0.67483674    -0.27100
F1733       F  0.55436113  0.18683486  0.71211369    -0.19200
H1734       H  0.58537000  0.25084020  0.68998491     0.16500
F1735       F  0.67419362  0.24276414  0.65022505    -0.22900
H1736       H  0.64035574  0.17695016  0.67017700     0.18300
C1737       C  0.86532049  0.39689712  0.70423083    -0.27000
C1738       C  0.85150435  0.41983004  0.69968029     0.06600
C1739       C  0.87622791  0.45934509  0.70425428     0.26200
C1740       C  0.91393128  0.47540588  0.71244299    -0.11500
C1741       C  0.92721223  0.45241513  0.71738980    -0.25400
C1742       C  0.90261853  0.41293764  0.71334401     0.37100
C1743       C  0.81160260  0.40254619  0.69020796     0.06600
F1744       F  0.86327761  0.48222510  0.70220180    -0.19200
H1745       H  0.93162966  0.50544609  0.71654369     0.16500
F1746       F  0.91419723  0.38980329  0.71893745    -0.22900
H1747       H  0.84709634  0.36644987  0.70095114     0.18300
C1748       C  0.80535791  0.42138786  0.67300964     0.26300
C1749       C  0.76817292  0.40501473  0.66405499    -0.11400
C1750       C  0.73696448  0.36798576  0.67034560    -0.25500
C1751       C  0.74261142  0.34912138  0.68776399     0.37200
C1752       C  0.77953493  0.36655143  0.69780100    -0.27100
F1753       F  0.83556996  0.45445466  0.66364648    -0.19200
H1754       H  0.76430634  0.42060089  0.65113822     0.16500
F1755       F  0.71322402  0.31318006  0.69425108    -0.22900
H1756       H  0.78327207  0.35145856  0.71114498     0.18300
C1757       C  0.59804454  0.45440942  0.70560318    -0.27000
C1758       C  0.57437150  0.41883081  0.69490558     0.06600
C1759       C  0.53380425  0.40185141  0.69334457     0.26200
C1760       C  0.51731321  0.41977530  0.70284310    -0.11500
C1761       C  0.54085613  0.45434325  0.71440630    -0.25400
C1762       C  0.58146217  0.47199826  0.71533237     0.37100
C1763       C  0.59214622  0.39954975  0.68564855     0.06600
F1764       F  0.51008659  0.36777191  0.68285337    -0.19200
H1765       H  0.48590861  0.40568771  0.70224833     0.16500
F1766       F  0.60260533  0.00033235  0.73293650    -0.22900
H1767       H  0.62927645  0.46796759  0.70710264     0.18300
C1768       C  0.62473438  0.41929394  0.67111169     0.26300
C1769       C  0.64044588  0.40058666  0.66185503    -0.11400
C1770       C  0.62409187  0.36194672  0.66688787    -0.25500
C1771       C  0.59248600  0.34250402  0.68202030     0.37200
C1772       C  0.57657718  0.36117854  0.69126676    -0.27100
F1773       F  0.64042046  0.45622304  0.66512801    -0.19200
H1774       H  0.66492040  0.41602696  0.65023599     0.16500
F1775       F  0.57574723  0.30503010  0.68692606    -0.22900
H1776       H  0.55185699  0.34558652  0.70269914     0.18300
C1777       C  0.66079465  0.82832607  0.62209979     0.46700
H1778       H  0.66089941  0.82950037  0.60339046    -0.02300
C1779       C  0.66038084  0.82596905  0.66594768     0.46700
H1780       H  0.66026500  0.82539319  0.68464288    -0.02300
C1781       C  0.64089059  0.78796202  0.63176647    -0.16000
C1782       C  0.70167509  0.85089748  0.63229086    -0.15800
C1783       C  0.63937359  0.84386638  0.63275694    -0.16200
C1784       C  0.64107868  0.78619515  0.65491752    -0.16200
C1785       C  0.70192685  0.85009497  0.65545629    -0.15700
C1786       C  0.63921656  0.84318753  0.65579362    -0.16000
C1787       C  0.65667952  0.82182613  0.86049905     0.46700
H1788       H  0.65589100  0.82307101  0.87918107    -0.02300
C1789       C  0.65863894  0.81929914  0.81671592     0.46700
H1790       H  0.65949598  0.81811505  0.79805928    -0.02300
C1791       C  0.63919854  0.78170923  0.85159024    -0.16000
C1792       C  0.63430446  0.83558823  0.84875897    -0.15800
C1793       C  0.69792069  0.84635102  0.85063782    -0.16200
C1794       C  0.64035053  0.78004736  0.82855554    -0.16200
C1795       C  0.63501045  0.83466320  0.82569765    -0.15700
C1796       C  0.69948469  0.84518113  0.82757839    -0.16000
C1797       C  0.50432457  0.98818158  0.71981998     0.46700
H1798       H  0.50533969  0.98975153  0.70112966    -0.02300
C1799       C  0.50183057  0.98443645  0.76388478     0.46700
H1800       H  0.50059267  0.98297879  0.78257333    -0.02300
C1801       C  0.52870179  0.52912931  0.73048664    -0.16000
C1802       C  0.96447220  0.97114241  0.73022756    -0.15800
C1803       C  0.52114179  0.96705380  0.72993410    -0.16200
C1804       C  0.52824517  0.52704410  0.75357570    -0.16200
C1805       C  0.96400652  0.96938851  0.75329986    -0.15700
C1806       C  0.51935038  0.96443293  0.75304562    -0.16000
C1807       C  0.80224677  0.62686995  0.36114817     0.46700
H1808       H  0.79947282  0.62554274  0.37980333    -0.02300
C1809       C  0.80844604  0.62941200  0.31741412     0.46700
H1810       H  0.81100340  0.63049969  0.29876093    -0.02300
C1811       C  0.82218465  0.66725236  0.35133189    -0.16000
C1812       C  0.82669388  0.61301854  0.35244943    -0.15800
C1813       C  0.76288144  0.60277663  0.34908874    -0.16200
C1814       C  0.82568678  0.66892358  0.32827588    -0.16200
C1815       C  0.82950309  0.61352169  0.32938248    -0.15700
C1816       C  0.76588067  0.60424350  0.32609538    -0.16000
C1817       C  0.80880908  0.62807125  0.12008382     0.46700
H1818       H  0.81064325  0.62594326  0.10153227    -0.02300
C1819       C  0.80489663  0.63286658  0.16352902     0.46700
H1820       H  0.80301918  0.63343236  0.18209394    -0.02300
C1821       C  0.82793367  0.66909158  0.12822062    -0.16000
C1822       C  0.76671706  0.60619561  0.12892070    -0.15800
C1823       C  0.82868424  0.61277290  0.13326284    -0.16200
C1824       C  0.82660380  0.67265863  0.15138767    -0.16200
C1825       C  0.76437406  0.60835348  0.15189697    -0.15700
C1826       C  0.82657801  0.61470975  0.15606092    -0.16000
C1827       C  0.96183863  0.96827931  0.21991000     0.46700
H1828       H  0.96065812  0.96817598  0.20122741    -0.02300
C1829       C  0.96476025  0.96775176  0.26387511     0.46700
H1830       H  0.96582097  0.96773872  0.28254862    -0.02300
C1831       C  0.94072362  0.92789460  0.23017525    -0.16000
C1832       C  0.50360280  0.98831452  0.22978395    -0.15800
C1833       C  0.94275958  0.98649910  0.23131551    -0.16200
C1834       C  0.94283766  0.92735866  0.25332991    -0.16200
C1835       C  0.50471750  0.98887920  0.25298136    -0.15700
C1836       C  0.94499053  0.98670794  0.25445286    -0.16000
O1837       O  0.55199655  0.56340053  0.97597490    -0.79700
O1838       O  0.96743110  0.90029453  0.00653531    -0.64400
O1839       O  0.49720361  0.98673600  0.97104023    -1.11000
C1840       C  0.92251100  0.49823792  0.02757094     1.07200
O1841       O  0.90730048  0.88410921  0.00359548    -0.77600
O1842       O  0.88307096  0.92745368  0.99006489    -0.65200
Ni1843     Ni  0.55106431  0.52240650  0.96246859     1.27900
C1844       C  0.89501487  0.95107176  0.97383910     0.86000
O1845       O  0.51239837  0.93056651  0.96786930    -0.78100
O1846       O  0.55122026  0.98443896  0.94716153    -0.88400
C1847       C  0.93111459  0.87667185  0.01059320     0.85500
O1848       O  0.57671519  0.52041544  0.98849451    -0.66600
O1849       O  0.90657448  0.96539376  0.03044875    -0.85900
C1850       C  0.56483710  0.49901736  0.00581131     0.86400
C1851       C  0.53599866  0.94918008  0.95148064     1.07900
H1852       H  0.97525415  0.97024787  0.02229698     0.39700
O1853       O  0.96085295  0.96169798  0.00835368    -1.08500
O1854       O  0.92907065  0.98185806  0.97307600    -0.65200
Ni1855     Ni  0.97368162  0.50469108  0.99126796     1.26300
O1856       O  0.53086083  0.97139946  0.00757818    -0.65400
O1857       O  0.94857200  0.51841421  0.01249748    -0.77700
C1858       C  0.52902857  0.57145941  0.96846531     0.85700
O1859       O  0.98990971  0.54946266  0.97342621    -0.64900
Ni1860     Ni  0.90771379  0.92554708  0.01655646     1.27400
Ni1861     Ni  0.98462803  0.94489648  0.98859841     1.26100
H1862       H  0.98223125  0.97934908  0.95776682     0.40300
O1863       O  0.90538129  0.89965842  0.45968967    -0.79700
O1864       O  0.00439704  0.55351549  0.51537322    -0.64400
O1865       O  0.96559685  0.97168170  0.47261052    -1.11000
C1866       C  0.53005362  0.93248244  0.51757859     1.07200
O1867       O  0.56462381  0.56157838  0.52083719    -0.77600
O1868       O  0.56744178  0.52717071  0.48303298    -0.65200
Ni1869     Ni  0.91067272  0.94564222  0.46801570     1.34900
C1870       C  0.55697312  0.50208253  0.46790592     0.86000
O1871       O  0.96584957  0.53851630  0.47592693    -0.78100
O1872       O  0.90942450  0.98934534  0.47418088    -0.88400
C1873       C  0.54196161  0.57256206  0.52269459     0.85500
O1874       O  0.90115658  0.93074464  0.49876517    -0.66600
O1875       O  0.55667355  0.96569405  0.51066118    -0.85900
C1876       C  0.91166680  0.95463183  0.51462983     0.86400
C1877       C  0.93053459  0.52214722  0.46983205     1.07900
H1878       H  0.99058494  0.97854190  0.52441440     0.39700
O1879       O  0.50212426  0.98393813  0.51080117    -1.08500
O1880       O  0.52835097  0.96500817  0.47166214    -0.65200
Ni1881     Ni  0.98170652  0.94441482  0.48982281     1.26300
O1882       O  0.94046404  0.98975160  0.51233717    -0.65400
O1883       O  0.49556571  0.91571141  0.50984503    -0.77700
C1884       C  0.92615065  0.88640548  0.45923122     0.85700
O1885       O  0.95841022  0.90186326  0.46968909    -0.64900
Ni1886     Ni  0.55937991  0.51496416  0.51419128     1.27400
Ni1887     Ni  0.98333985  0.51310320  0.49393433     1.26100
H1888       H  0.97893375  0.98035268  0.45821111     0.40300
C1889       C  0.65889230  0.54522974  0.03918232    -0.27000
C1890       C  0.64484756  0.53637126  0.06143382     0.06600
C1891       C  0.60418318  0.51396838  0.06528369     0.26200
C1892       C  0.57822452  0.50065223  0.04708385    -0.11500
C1893       C  0.59237548  0.51017039  0.02480173    -0.25400
C1894       C  0.63309996  0.53249175  0.02105222     0.37100
C1895       C  0.67324744  0.55106289  0.08025452     0.06600
F1896       F  0.58959126  0.50477536  0.08657516    -0.19200
H1897       H  0.54702493  0.48377552  0.05044969     0.16500
F1898       F  0.64870578  0.04645733  0.99839903    -0.22900
H1899       H  0.69010806  0.56266325  0.03584717     0.18300
C1900       C  0.70284145  0.54456520  0.08049537     0.26300
C1901       C  0.73234627  0.56197157  0.09664475    -0.11400
C1902       C  0.73289889  0.58585769  0.11312566    -0.25500
C1903       C  0.70304729  0.59218866  0.11303521     0.37200
C1904       C  0.67326883  0.57454634  0.09686654    -0.27100
F1905       F  0.70352245  0.52174410  0.06484003    -0.19200
H1906       H  0.75530866  0.55729901  0.09592880     0.16500
F1907       F  0.70403297  0.61735003  0.12749941    -0.22900
H1908       H  0.65126351  0.58067329  0.09664871     0.18300
C1909       C  0.88769109  0.73406376  0.07936661    -0.27000
C1910       C  0.87265137  0.75619763  0.07690380     0.06600
C1911       C  0.84280697  0.74985935  0.09162494     0.26200
C1912       C  0.82865631  0.72196682  0.10861901    -0.11500
C1913       C  0.84399094  0.70004377  0.11107195    -0.25400
C1914       C  0.87332703  0.70605907  0.09613426     0.37100
C1915       C  0.88806017  0.78547377  0.05879854     0.06600
F1916       F  0.82774046  0.77093963  0.08973973    -0.19200
H1917       H  0.80559546  0.71724673  0.11976900     0.16500
F1918       F  0.88832814  0.68497430  0.09780289    -0.22900
H1919       H  0.91025565  0.73811072  0.06803150     0.18300
C1920       C  0.92847799  0.81370269  0.05667504     0.26300
C1921       C  0.94258071  0.84197130  0.03998327    -0.11400
C1922       C  0.91667208  0.84277050  0.02521793    -0.25500
C1923       C  0.87635217  0.81343480  0.02674993     0.37200
C1924       C  0.86232084  0.78515351  0.04341292    -0.27100
F1925       F  0.95414530  0.81508955  0.07144709    -0.19200
H1926       H  0.97364269  0.86433539  0.03934613     0.16500
F1927       F  0.85031513  0.81240236  0.01244834    -0.22900
H1928       H  0.83119919  0.76308915  0.04444072     0.18300
C1929       C  0.91263115  0.57112801  0.05804187    -0.27000
C1930       C  0.89218053  0.55035425  0.07756747     0.06600
C1931       C  0.88302863  0.51332983  0.08063361     0.26200
C1932       C  0.89278052  0.49693116  0.06416646    -0.11500
C1933       C  0.91241262  0.51709447  0.04431842    -0.25400
C1934       C  0.92293869  0.55480084  0.04155453     0.37100
C1935       C  0.87756558  0.56586115  0.09379938     0.06600
F1936       F  0.86468686  0.49291005  0.09964570    -0.19200
H1937       H  0.88510316  0.46825435  0.06717544     0.16500
F1938       F  0.94627036  0.07940666  0.02402003    -0.22900
H1939       H  0.91961051  0.59959660  0.05523936     0.18300
C1940       C  0.90191466  0.60340306  0.10207376     0.26300
C1941       C  0.88632187  0.61804937  0.11605742    -0.11400
C1942       C  0.84644529  0.59557536  0.12170796    -0.25500
C1943       C  0.82275919  0.55751974  0.11466132     0.37200
C1944       C  0.83809769  0.54293078  0.10061114    -0.27100
F1945       F  0.94052551  0.62584857  0.09657174    -0.19200
H1946       H  0.90510194  0.64715503  0.12207787     0.16500
F1947       F  0.78466595  0.53465075  0.12112762    -0.22900
H1948       H  0.81872911  0.51394716  0.09449880     0.18300
C1949       C  0.84443199  0.74963430  0.19371764    -0.27000
C1950       C  0.87474801  0.78372219  0.18325287     0.06600
C1951       C  0.89079062  0.78041593  0.16317845     0.26200
C1952       C  0.87715031  0.74447724  0.15425979    -0.11500
C1953       C  0.84437033  0.71051406  0.16343379    -0.25400
C1954       C  0.82897082  0.71374659  0.18387997     0.37100
C1955       C  0.89059709  0.82205618  0.19381426     0.06600
F1956       F  0.91905161  0.81182091  0.15155597    -0.19200
H1957       H  0.89260485  0.74377899  0.13986371     0.16500
F1958       F  0.79893903  0.68266660  0.19470160    -0.22900
H1959       H  0.83255296  0.75046531  0.20975929     0.18300
C1960       C  0.86631807  0.82959139  0.20597377     0.26300
C1961       C  0.88252432  0.86432374  0.21741363    -0.11400
C1962       C  0.92273089  0.89306635  0.21596554    -0.25500
C1963       C  0.94640758  0.88702728  0.20242836     0.37200
C1964       C  0.93087752  0.85151628  0.19233035    -0.27100
F1965       F  0.82691275  0.80372673  0.20673616    -0.19200
H1966       H  0.86370245  0.86880576  0.22749627     0.16500
F1967       F  0.98534215  0.91435570  0.20051090    -0.22900
H1968       H  0.95105592  0.84695207  0.18400643     0.18300
C1969       C  0.83138206  0.53847370  0.18559655    -0.27000
C1970       C  0.87136779  0.55841468  0.19099932     0.06600
C1971       C  0.89543731  0.59833664  0.18712728     0.26200
C1972       C  0.88009783  0.61722115  0.17722110    -0.11500
C1973       C  0.84045007  0.59692177  0.17131962    -0.25400
C1974       C  0.81605692  0.55748552  0.17596486     0.37100
C1975       C  0.88781122  0.53738671  0.20013827     0.06600
F1976       F  0.93389531  0.61910399  0.19273302    -0.19200
H1977       H  0.89950518  0.64749449  0.17334953     0.16500
F1978       F  0.77780252  0.53693295  0.16996374    -0.22900
H1979       H  0.81216035  0.50777317  0.18802860     0.18300
C1980       C  0.86889225  0.00997067  0.21741079     0.26300
C1981       C  0.88555985  0.99170006  0.22624202    -0.11400
C1982       C  0.92240503  0.00136283  0.21879955    -0.25500
C1983       C  0.93960883  0.52624804  0.20059821     0.37200
C1984       C  0.92294858  0.54441446  0.19143615    -0.27100
F1985       F  0.83474514  0.00162105  0.22636519    -0.19200
H1986       H  0.87010893  0.97071436  0.23953776     0.16500
F1987       F  0.97414961  0.53509776  0.19218567    -0.22900
H1988       H  0.93782524  0.56437181  0.17759199     0.18300
C1989       C  0.59733570  0.50270605  0.20860642    -0.27000
C1990       C  0.61198840  0.53409414  0.19398583     0.06600
C1991       C  0.58876883  0.54774571  0.18922686     0.26200
C1992       C  0.55234198  0.53129269  0.19975288    -0.11500
C1993       C  0.53887738  0.00190304  0.21565063    -0.25400
C1994       C  0.56107434  0.98666672  0.21892093     0.37100
C1995       C  0.65176454  0.55285957  0.18418633     0.06600
F1996       F  0.60149123  0.57724989  0.17457459    -0.19200
H1997       H  0.53611756  0.54364618  0.19682156     0.16500
F1998       F  0.54816122  0.95644803  0.23303012    -0.22900
H1999       H  0.61470632  0.49172044  0.21247523     0.18300
C2000       C  0.67974172  0.59246244  0.18656170     0.26300
C2001       C  0.71672427  0.61007452  0.17660125    -0.11400
C2002       C  0.72667085  0.58857465  0.16439447    -0.25500
C2003       C  0.69916433  0.54877242  0.16260450     0.37200
C2004       C  0.66205972  0.53112088  0.17247009    -0.27100
F2005       F  0.67130819  0.61412673  0.19850699    -0.19200
H2006       H  0.73683248  0.64079899  0.17747457     0.16500
F2007       F  0.70791098  0.52712160  0.15093006    -0.22900
H2008       H  0.64101264  0.50054784  0.17056464     0.18300
C2009       C  0.66993511  0.58024952  0.37690654    -0.27000
C2010       C  0.66043785  0.54935805  0.39093498     0.06600
C2011       C  0.68265670  0.53391487  0.38944833     0.26200
C2012       C  0.71513614  0.55058452  0.37503426    -0.11500
C2013       C  0.72553730  0.58245621  0.36178531    -0.25400
C2014       C  0.70236882  0.59687551  0.36251682     0.37100
C2015       C  0.63130140  0.53716115  0.40923069     0.06600
F2016       F  0.67468640  0.50456787  0.40310559    -0.19200
H2017       H  0.73306340  0.53950645  0.37477966     0.16500
F2018       F  0.71272574  0.62871645  0.35065003    -0.22900
H2019       H  0.65330984  0.59268053  0.37795181     0.18300
C2020       C  0.63673295  0.56399652  0.42522472     0.26300
C2021       C  0.61160008  0.55243609  0.44370192    -0.11400
C2022       C  0.58051933  0.51378753  0.44681023    -0.25500
C2023       C  0.57673910  0.98590708  0.43197784     0.37200
C2024       C  0.59976271  0.49869158  0.41181362    -0.27100
F2025       F  0.66770635  0.60117205  0.42362652    -0.19200
H2026       H  0.61731950  0.57383376  0.45595918     0.16500
F2027       F  0.54778093  0.94805970  0.43396270    -0.22900
H2028       H  0.59902219  0.97752137  0.40150152     0.18300
C2029       C  0.82973240  0.72818347  0.39973809    -0.27000
C2030       C  0.86905920  0.75950572  0.39838003     0.06600
C2031       C  0.89284376  0.76094149  0.38095964     0.26200
C2032       C  0.87724996  0.73145981  0.36519195    -0.11500
C2033       C  0.83770722  0.70050324  0.36639624    -0.25400
C2034       C  0.81408604  0.69911470  0.38384605     0.37100
C2035       C  0.88399352  0.79126676  0.41452295     0.06600
F2036       F  0.93087450  0.79100556  0.37899002    -0.19200
H2037       H  0.89641447  0.73228288  0.35249689     0.16500
F2038       F  0.77579764  0.66960521  0.38557420    -0.22900
H2039       H  0.81099476  0.72627467  0.41317284     0.18300
C2040       C  0.86269087  0.80714093  0.41825203     0.26300
C2041       C  0.87609852  0.83684795  0.43341237    -0.11400
C2042       C  0.91154810  0.85222112  0.44501623    -0.25500
C2043       C  0.93298493  0.83625308  0.44137711     0.37200
C2044       C  0.91911564  0.80586529  0.42627513    -0.27100
F2045       F  0.82945662  0.79485108  0.40659281    -0.19200
H2046       H  0.85884595  0.84843847  0.43554514     0.16500
F2047       F  0.96746880  0.85025141  0.45201146    -0.22900
H2048       H  0.93578582  0.79373471  0.42374147     0.18300
C2049       C  0.86557587  0.53881367  0.43464975    -0.27000
C2050       C  0.89301539  0.56971097  0.42102873     0.06600
C2051       C  0.93313118  0.58840111  0.42564415     0.26200
C2052       C  0.94542253  0.57448000  0.44266299    -0.11500
C2053       C  0.91788498  0.54195756  0.45543828    -0.25400
C2054       C  0.87767732  0.52515260  0.45173179     0.37100
C2055       C  0.87908586  0.58168657  0.40203841     0.06600
F2056       F  0.96039894  0.61874337  0.41291552    -0.19200
H2057       H  0.97647995  0.58795709  0.44504733     0.16500
F2058       F  0.85648220  0.00308094  0.46784724    -0.22900
H2059       H  0.83907230  0.03138126  0.43536580     0.18300
C2060       C  0.85416149  0.55516470  0.38554228     0.26300
C2061       C  0.83818886  0.56569526  0.36883495    -0.11400
C2062       C  0.84671541  0.60270207  0.36842667    -0.25500
C2063       C  0.87246120  0.62947147  0.38451601     0.37200
C2064       C  0.88865216  0.61906773  0.40107876    -0.27100
F2065       F  0.84500652  0.51897452  0.38575603    -0.19200
H2066       H  0.81827802  0.54468830  0.35663934     0.16500
F2067       F  0.88172461  0.66567692  0.38433894    -0.22900
H2068       H  0.90766225  0.63985128  0.41362848     0.18300
C2069       C  0.92572015  0.83223002  0.26969972    -0.27000
C2070       C  0.89758555  0.81904314  0.28698218     0.06600
C2071       C  0.88896899  0.84465010  0.29534966     0.26200
C2072       C  0.90452040  0.88029212  0.28484943    -0.11500
C2073       C  0.93022569  0.89190272  0.26648456    -0.25400
C2074       C  0.94286908  0.86863956  0.26020219     0.37100
C2075       C  0.87812223  0.77913176  0.29621303     0.06600
F2076       F  0.86614887  0.83571397  0.31391944    -0.19200
H2077       H  0.89598557  0.89851985  0.29089276     0.16500
F2078       F  0.97226087  0.88126384  0.24502583    -0.22900
H2079       H  0.93434235  0.81425281  0.26323717     0.18300
C2080       C  0.83813767  0.75685290  0.30242427     0.26300
C2081       C  0.82114803  0.72077884  0.31244974    -0.11400
C2082       C  0.84268563  0.70495882  0.31519346    -0.25500
C2083       C  0.88144413  0.72539767  0.30733385     0.37200
C2084       C  0.89922520  0.76242659  0.29842784    -0.27100
F2085       F  0.81504999  0.76940033  0.29842581    -0.19200
H2086       H  0.79111067  0.70526121  0.31827666     0.16500
F2087       F  0.90274871  0.71042561  0.30948512    -0.22900
H2088       H  0.92985723  0.77829202  0.29375892     0.18300
C2089       C  0.90695088  0.59815581  0.31100942    -0.27000
C2090       C  0.88453764  0.56447283  0.29837646     0.06600
C2091       C  0.84477303  0.54900334  0.29453524     0.26200
C2092       C  0.82754587  0.56634390  0.30378762    -0.11500
C2093       C  0.84956844  0.59900532  0.31717885    -0.25400
C2094       C  0.88960317  0.61529305  0.32041943     0.37100
C2095       C  0.90262230  0.54556337  0.28916378     0.06600
F2096       F  0.82160423  0.01635587  0.28240919    -0.19200
H2097       H  0.79665070  0.55352871  0.30115833     0.16500
F2098       F  0.91167968  0.64742055  0.33292867    -0.22900
H2099       H  0.93768898  0.61066629  0.31398304     0.18300
C2100       C  0.93459977  0.56523741  0.27426268     0.26300
C2101       C  0.94954733  0.54626697  0.26430842    -0.11400
C2102       C  0.93327170  0.00733795  0.26876596    -0.25500
C2103       C  0.90119816  0.98736736  0.28358174     0.37200
C2104       C  0.88570804  0.00599897  0.29346605    -0.27100
F2105       F  0.94980114  0.60207873  0.26829881    -0.19200
H2106       H  0.97315629  0.56146986  0.25213306     0.16500
F2107       F  0.88307302  0.94931631  0.28716862    -0.22900
H2108       H  0.86033996  0.98990024  0.30440592     0.18300
C2109       C  0.58383722  0.50668016  0.29236237    -0.27000
C2110       C  0.61649268  0.54114225  0.28350753     0.06600
C2111       C  0.61028796  0.55946866  0.26593700     0.26200
C2112       C  0.57266652  0.54421249  0.25793691    -0.11500
C2113       C  0.54215187  0.00858961  0.26593169    -0.25400
C2114       C  0.54638277  0.49005128  0.28319323     0.37100
C2115       C  0.65667433  0.55759574  0.29246568     0.06600
F2116       F  0.64072774  0.59070186  0.25526223    -0.19200
H2117       H  0.56898260  0.55936219  0.24461807     0.16500
F2118       F  0.51782672  0.95541557  0.29133699    -0.22900
H2119       H  0.58741786  0.49207599  0.30608365     0.18300
C2120       C  0.68326562  0.59739677  0.29563915     0.26300
C2121       C  0.72049340  0.61241259  0.30429684    -0.11400
C2122       C  0.73122147  0.58822801  0.31146536    -0.25500
C2123       C  0.70525044  0.54861453  0.30830837     0.37200
C2124       C  0.66855717  0.53351362  0.29850793    -0.27100
F2125       F  0.67244796  0.62174022  0.29214080    -0.19200
H2126       H  0.73979038  0.64287486  0.30722005     0.16500
F2127       F  0.71489604  0.52456623  0.31538392    -0.22900
H2128       H  0.64909394  0.50287290  0.29612638     0.18300
C2129       C  0.62875386  0.71961508  0.90059749    -0.27000
C2130       C  0.58863844  0.69001061  0.90014295     0.06600
C2131       C  0.56521877  0.69027169  0.88311824     0.26200
C2132       C  0.58204059  0.71931335  0.86670280    -0.11500
C2133       C  0.62215341  0.74871275  0.86729356    -0.25400
C2134       C  0.64533558  0.74875908  0.88444095     0.37100
C2135       C  0.57217689  0.65901324  0.91735675     0.06600
F2136       F  0.52629117  0.66237710  0.88222939    -0.19200
H2137       H  0.56364070  0.71945071  0.85385961     0.16500
F2138       F  0.68412112  0.77704598  0.88554794    -0.22900
H2139       H  0.64727385  0.72044423  0.91372946     0.18300
C2140       C  0.59112859  0.64087565  0.92193050     0.26300
C2141       C  0.57728254  0.61334867  0.93894257    -0.11400
C2142       C  0.54378465  0.60258462  0.95158272    -0.25500
C2143       C  0.52425666  0.62012051  0.94681069     0.37200
C2144       C  0.53855157  0.64829725  0.92990322    -0.27100
F2145       F  0.62265559  0.64916537  0.90958811    -0.19200
H2146       H  0.59241832  0.59971158  0.94184485     0.16500
F2147       F  0.98646252  0.60848502  0.95724511    -0.22900
H2148       H  0.52372851  0.66219198  0.92685503     0.18300
C2149       C  0.85697998  0.94364531  0.91469545    -0.27000
C2150       C  0.81653223  0.91852490  0.91818251     0.06600
C2151       C  0.80186498  0.90558628  0.94004341     0.26200
C2152       C  0.82752130  0.91691716  0.95813500    -0.11500
C2153       C  0.86819363  0.94174874  0.95476336    -0.25400
C2154       C  0.88272706  0.95556681  0.93284712     0.37100
C2155       C  0.78955823  0.90405871  0.89896430     0.06600
F2156       F  0.76276685  0.88083642  0.94372432    -0.19200
H2157       H  0.81556049  0.90591348  0.97478781     0.16500
F2158       F  0.92179892  0.97918788  0.92876275    -0.22900
H2159       H  0.86857463  0.95365679  0.89786117     0.18300
C2160       C  0.76161148  0.91255349  0.89694887     0.26300
C2161       C  0.73289619  0.89475956  0.88042672    -0.11400
C2162       C  0.73175835  0.86839596  0.86574047    -0.25500
C2163       C  0.76032669  0.86062101  0.86731481     0.37200
C2164       C  0.78930595  0.87869010  0.88377139    -0.27100
F2165       F  0.76152173  0.93722941  0.91135872    -0.19200
H2166       H  0.71083453  0.90077779  0.87941766     0.16500
F2167       F  0.75866853  0.83384812  0.85398991    -0.22900
H2168       H  0.81039817  0.87150774  0.88540379     0.18300
C2169       C  0.57161604  0.89109863  0.92921643    -0.27000
C2170       C  0.57178749  0.89714261  0.90591584     0.06600
C2171       C  0.55802233  0.91851095  0.89778320     0.26200
C2172       C  0.54578819  0.93479361  0.91284267    -0.11500
C2173       C  0.54626777  0.92929648  0.93612269    -0.25400
C2174       C  0.55875137  0.90692154  0.94427294     0.37100
C2175       C  0.58657209  0.88120809  0.89031759     0.06600
F2176       F  0.55599773  0.92327250  0.87532831    -0.19200
H2177       H  0.53584758  0.95174434  0.90633555     0.16500
F2178       F  0.56036665  0.90202609  0.96673611    -0.22900
H2179       H  0.58231906  0.87483552  0.93576505     0.18300
C2180       C  0.61506052  0.90447416  0.87390964     0.26300
C2181       C  0.62957750  0.88910898  0.85980079    -0.11400
C2182       C  0.61620461  0.85067315  0.86207989    -0.25500
C2183       C  0.58815153  0.82752874  0.87854294     0.37200
C2184       C  0.57319629  0.84266606  0.89243512    -0.27100
F2185       F  0.63020049  0.94236996  0.87224368    -0.19200
H2186       H  0.65222049  0.90746918  0.84762027     0.16500
F2187       F  0.57542624  0.79038133  0.88123279    -0.22900
H2188       H  0.55135756  0.82438159  0.90500055     0.18300
C2189       C  0.80276387  0.92187441  0.80856398    -0.27000
C2190       C  0.81239741  0.90066866  0.79560991     0.06600
C2191       C  0.78320785  0.86166667  0.79164823     0.26200
C2192       C  0.74577382  0.84420782  0.80113554    -0.11500
C2193       C  0.73683206  0.86525507  0.81468448    -0.25400
C2194       C  0.76528013  0.90455629  0.81774277     0.37100
C2195       C  0.85266820  0.91953547  0.78617567     0.06600
F2196       F  0.79079570  0.84044724  0.77856858    -0.19200
H2197       H  0.72416441  0.81389334  0.79857620     0.16500
F2198       F  0.75698092  0.92609568  0.82993182    -0.22900
H2199       H  0.82454344  0.95184139  0.81197425     0.18300
C2200       C  0.87139396  0.95545552  0.77538921     0.26300
C2201       C  0.90866500  0.97248649  0.76602756    -0.11400
C2202       C  0.92773447  0.95386495  0.76670816    -0.25500
C2203       C  0.90991223  0.91870029  0.77803372     0.37200
C2204       C  0.87272177  0.90176173  0.78779272    -0.27100
F2205       F  0.85299133  0.97334597  0.77290653    -0.19200
H2206       H  0.92215718  0.99979449  0.75748544     0.16500
F2207       F  0.92775828  0.90009109  0.77882410    -0.22900
H2208       H  0.85938624  0.87451578  0.79640630     0.18300
C2209       C  0.55976222  0.85135761  0.80447738    -0.27000
C2210       C  0.58317604  0.88554091  0.79213661     0.06600
C2211       C  0.62301334  0.90033416  0.78873250     0.26200
C2212       C  0.63918083  0.88187893  0.79820559    -0.11500
C2213       C  0.61608621  0.84878233  0.81147404    -0.25400
C2214       C  0.57596466  0.83322520  0.81412897     0.37100
C2215       C  0.56567373  0.90547570  0.78315655     0.06600
F2216       F  0.64635006  0.93281341  0.77645598    -0.19200
H2217       H  0.67020082  0.89454841  0.79618625     0.16500
F2218       F  0.55276249  0.80129399  0.82688114    -0.22900
H2219       H  0.52904912  0.83936471  0.80729115     0.18300
C2220       C  0.53300964  0.88621415  0.76888424     0.26300
C2221       C  0.51660621  0.90489575  0.76042703    -0.11400
C2222       C  0.53244268  0.94325322  0.76583935    -0.25500
C2223       C  0.56406749  0.96215794  0.78085112     0.37200
C2224       C  0.58071444  0.94346597  0.78928004    -0.27100
F2225       F  0.51792727  0.84976021  0.76236485    -0.19200
H2226       H  0.99337583  0.89276654  0.74871760     0.16500
F2227       F  0.58117111  0.49984351  0.78578899    -0.22900
H2228       H  0.60547995  0.95867923  0.80053664     0.18300
C2229       C  0.62956648  0.68889712  0.81144899    -0.27000
C2230       C  0.59779103  0.67290466  0.79660471     0.06600
C2231       C  0.58198481  0.69382357  0.79112978     0.26200
C2232       C  0.59694615  0.72944166  0.80096176    -0.11500
C2233       C  0.62758835  0.74451524  0.81642515    -0.25400
C2234       C  0.64447615  0.72447358  0.82124350     0.37100
C2235       C  0.58054061  0.63407257  0.78740188     0.06600
F2236       F  0.55206408  0.67980316  0.77629543    -0.19200
H2237       H  0.58387408  0.74476661  0.79703191     0.16500
F2238       F  0.67514278  0.73918243  0.83559669    -0.22900
H2239       H  0.64219637  0.67337250  0.81592898     0.18300
C2240       C  0.60419133  0.62395194  0.77739763     0.26300
C2241       C  0.58707294  0.58775771  0.76788931    -0.11400
C2242       C  0.54628099  0.56149744  0.76781946    -0.25500
C2243       C  0.52279964  0.57086566  0.77866681     0.37200
C2244       C  0.53984995  0.60679460  0.78847160    -0.27100
F2245       F  0.64355852  0.64964656  0.77573644    -0.19200
H2246       H  0.60555105  0.58074018  0.75974290     0.16500
F2247       F  0.48330457  0.54611128  0.77881127    -0.22900
H2248       H  0.52114194  0.61362116  0.79654892     0.18300
C2249       C  0.54578408  0.65041119  0.55654976    -0.27000
C2250       C  0.58161160  0.66636616  0.56768760     0.06600
C2251       C  0.60442774  0.65232375  0.56330586     0.26200
C2252       C  0.59188791  0.62316987  0.54790628    -0.11500
C2253       C  0.55582242  0.60652243  0.53683019    -0.25400
C2254       C  0.53285491  0.62065024  0.54116139     0.37100
C2255       C  0.59565080  0.69770706  0.58386428     0.06600
F2256       F  0.63836345  0.66590663  0.57451873    -0.19200
H2257       H  0.61022315  0.61289534  0.54524867     0.16500
F2258       F  0.49787072  0.60553295  0.53087984    -0.22900
H2259       H  0.52792457  0.66107567  0.55975571     0.18300
C2260       C  0.63389649  0.73082174  0.58187233     0.26300
C2261       C  0.64847798  0.75911445  0.59808423    -0.11400
C2262       C  0.62500699  0.75546991  0.61624777    -0.25500
C2263       C  0.58631144  0.72295638  0.61802716     0.37200
C2264       C  0.57181040  0.69406616  0.60191900    -0.27100
F2265       F  0.65704928  0.73604191  0.56405903    -0.19200
H2266       H  0.67824007  0.78421249  0.59634639     0.16500
F2267       F  0.56239222  0.71964088  0.63486863    -0.22900
H2268       H  0.54218939  0.66875170  0.60361437     0.18300
C2269       C  0.79451114  0.87349702  0.60393212    -0.27000
C2270       C  0.80187136  0.90195411  0.58838043     0.06600
C2271       C  0.77636219  0.91376072  0.58767266     0.26200
C2272       C  0.74404756  0.89711027  0.60211916    -0.11500
C2273       C  0.73678162  0.86880811  0.61761442    -0.25400
C2274       C  0.76220370  0.85697967  0.61845018     0.37100
C2275       C  0.83364474  0.91631373  0.57147491     0.06600
F2276       F  0.78152854  0.94001883  0.57229340    -0.19200
H2277       H  0.72452998  0.90619619  0.60109709     0.16500
F2278       F  0.75510546  0.82871684  0.63280409    -0.22900
H2279       H  0.81350540  0.86365424  0.60455801     0.18300
C2280       C  0.86069526  0.95572232  0.56733078     0.26300
C2281       C  0.88748939  0.96825912  0.54947501    -0.11400
C2282       C  0.88766460  0.94170863  0.53548473    -0.25500
C2283       C  0.86213510  0.90238598  0.54060068     0.37200
C2284       C  0.83545192  0.88996734  0.55837251    -0.27100
F2285       F  0.86085968  0.98201689  0.58034831    -0.19200
H2286       H  0.90704721  0.99868508  0.54608247     0.16500
F2287       F  0.86229176  0.87573586  0.52814991    -0.22900
H2288       H  0.81507866  0.85950201  0.56137057     0.18300
C2289       C  0.56262127  0.84280193  0.59787086    -0.27000
C2290       C  0.58559224  0.87744303  0.58585021     0.06600
C2291       C  0.62597285  0.90175068  0.59042381     0.26200
C2292       C  0.64278089  0.89161265  0.60670653    -0.11500
C2293       C  0.61995729  0.85694635  0.61847241    -0.25400
C2294       C  0.57972037  0.83248455  0.61399114     0.37100
C2295       C  0.56767184  0.88906558  0.56906034     0.06600
F2296       F  0.64947057  0.93474010  0.57857884    -0.19200
H2297       H  0.67382627  0.91060079  0.60989463     0.16500
F2298       F  0.55732930  0.79814157  0.62468060    -0.22900
H2299       H  0.53149405  0.82375472  0.59474339     0.18300
C2300       C  0.54417298  0.86489245  0.55129858     0.26300
C2301       C  0.53022907  0.87809829  0.53477322    -0.11400
C2302       C  0.54013358  0.91564251  0.53567056    -0.25500
C2303       C  0.56221544  0.93902038  0.55391922     0.37200
C2304       C  0.57555295  0.92576081  0.57042174    -0.27100
F2305       F  0.53638836  0.82936832  0.54930819    -0.19200
H2306       H  0.51322733  0.85970670  0.52085281     0.16500
F2307       F  0.57099862  0.97498271  0.55577820    -0.22900
H2308       H  0.59267469  0.94451740  0.58420407     0.18300
C2309       C  0.60295605  0.62578872  0.70353537    -0.27000
C2310       C  0.57989639  0.63976866  0.69899201     0.06600
C2311       C  0.53930585  0.61545632  0.70331045     0.26200
C2312       C  0.52294732  0.57937639  0.71316432    -0.11500
C2313       C  0.54608474  0.56587079  0.71798431    -0.25400
C2314       C  0.58616256  0.58904291  0.71267158     0.37100
C2315       C  0.59801596  0.67898151  0.68918552     0.06600
F2316       F  0.51514765  0.62609437  0.69759084    -0.19200
H2317       H  0.49219114  0.56221750  0.71737515     0.16500
F2318       F  0.60922499  0.57652877  0.71686678    -0.22900
H2319       H  0.63418066  0.64353543  0.70030723     0.18300
C2320       C  0.58754935  0.70352726  0.69678431     0.26300
C2321       C  0.60241965  0.73879999  0.68603012    -0.11400
C2322       C  0.62848050  0.75064515  0.66781585    -0.25500
C2323       C  0.64170502  0.72782359  0.66160582     0.37200
C2324       C  0.62612077  0.69219652  0.67189254    -0.27100
F2325       F  0.56336526  0.69374609  0.71479257    -0.19200
H2326       H  0.59292906  0.75650999  0.69165189     0.16500
F2327       F  0.66986394  0.74001583  0.64559308    -0.22900
H2328       H  0.63560038  0.67460545  0.66597897     0.18300
C2329       C  0.86775937  0.89972233  0.70233264    -0.27000
C2330       C  0.85316830  0.92213041  0.69833257     0.06600
C2331       C  0.87686922  0.96133475  0.70380704     0.26200
C2332       C  0.91442346  0.97768565  0.71237667    -0.11500
C2333       C  0.92837165  0.95509823  0.71686663    -0.25400
C2334       C  0.90481146  0.91593729  0.71183609     0.37100
C2335       C  0.81341645  0.90457596  0.68860102     0.06600
F2336       F  0.86300350  0.98349244  0.70217441    -0.19200
H2337       H  0.93160376  0.00758104  0.71690758     0.16500
F2338       F  0.91716653  0.89322522  0.71679812    -0.22900
H2339       H  0.85029642  0.86952586  0.69832747     0.18300
C2340       C  0.80703791  0.92360653  0.67159660     0.26300
C2341       C  0.76984731  0.90708404  0.66255219    -0.11400
C2342       C  0.73872418  0.86993043  0.66878209    -0.25500
C2343       C  0.74467067  0.85081191  0.68590085     0.37200
C2344       C  0.78161196  0.86823203  0.69587507    -0.27100
F2345       F  0.83714898  0.95716205  0.66262855    -0.19200
H2346       H  0.76588757  0.92269842  0.64967698     0.16500
F2347       F  0.71554011  0.81462052  0.69215285    -0.22900
H2348       H  0.78554174  0.85294868  0.70900235     0.18300
C2349       C  0.59741278  0.95149126  0.71049639    -0.27000
C2350       C  0.57501576  0.91846769  0.69733534     0.06600
C2351       C  0.53557186  0.90402944  0.69298179     0.26200
C2352       C  0.51863237  0.92156239  0.70239463    -0.11500
C2353       C  0.54071258  0.95346743  0.71630355    -0.25400
C2354       C  0.58052640  0.96902497  0.71978469     0.37100
C2355       C  0.59298130  0.89933097  0.68825186     0.06600
F2356       F  0.51340265  0.87289289  0.67973943    -0.19200
H2357       H  0.48788879  0.90925887  0.69966235     0.16500
F2358       F  0.60480720  0.50552091  0.72644089    -0.22900
H2359       H  0.62776103  0.96310625  0.71412386     0.18300
C2360       C  0.62889002  0.92054193  0.67656976     0.26300
C2361       C  0.64461132  0.90205221  0.66707368    -0.11400
C2362       C  0.62498541  0.86226625  0.66907967    -0.25500
C2363       C  0.58996471  0.84110541  0.68142913     0.37200
C2364       C  0.57410072  0.85958678  0.69097990    -0.27100
F2365       F  0.64784733  0.95885507  0.67338366    -0.19200
H2366       H  0.67156718  0.91862489  0.65742383     0.16500
F2367       F  0.57023855  0.80251926  0.68330982    -0.22900
H2368       H  0.54677137  0.84280610  0.70025355     0.18300
loop_ 
_geom_bond_atom_site_label_1 
_geom_bond_atom_site_label_2 
_geom_bond_distance 
_geom_bond_site_symmetry_2 
_ccdc_geom_bond_type 
C1            H2   1.112       .  S
C1            C7   1.522       .  S
C1            C6   1.526       .  S
C1            C5   1.522       .  S
C3            H4   1.110       .  S
C3            C9   1.548       .  S
C3            C8   1.550       .  S
C3           C10   1.557       .  S
C5            C8   1.375       .  D
C5          C486   1.471       .  S
C6            C9   1.374       .  D
C6          C497   1.481       .  S
C7           C10   1.377       .  D
C7          C517   1.492       .  S
C8          C546   1.497       .  S
C9          C566   1.491       .  S
C10         C586   1.486       .  S
C11          H12   1.112       .  S
C11          C17   1.525       .  S
C11          C16   1.518       .  S
C11          C15   1.520       .  S
C13          H14   1.111       .  S
C13          C19   1.547       .  S
C13          C18   1.546       .  S
C13          C20   1.545       .  S
C15          C18   1.372       .  D
C15         C357   1.480       .  S
C16          C19   1.371       .  D
C16         C406   1.467       .  S
C17          C20   1.374       .  D
C17         C386   1.472       .  S
C18         C457   1.472       .  S
C19         C437   1.487       .  S
C20         C417   1.487       .  S
C21          H22   1.111       .  S
C21          C27   1.539       .  S
C21        C1210   1.539   1_455  S
C21         C617   1.541       .  S
C23          H24   1.111       .  S
C23          C30   1.540       .  S
C23        C1213   1.539   1_455  S
C23         C620   1.541       .  S
C25         C613   1.538   1_545  S
C25          C28   1.374       .  D
C25         C537   1.486       .  S
C26        C1205   1.538       .  S
C26          C29   1.372       .  D
C26         C557   1.482       .  S
C27          C30   1.374       .  D
C27         C577   1.480       .  S
C28         C615   1.538   1_545  S
C28         C466   1.476       .  S
C29        C1207   1.539       .  S
C29         C426   1.485       .  S
C30         C446   1.491       .  S
C31          H32   1.112       .  S
C31          C37   1.532       .  S
C31          C36   1.523       .  S
C31          C35   1.529       .  S
C33          H34   1.111       .  S
C33          C39   1.549       .  S
C33          C38   1.546       .  S
C33          C40   1.543       .  S
C35          C38   1.374       .  D
C35         C257   1.478       .  S
C36          C39   1.373       .  D
C36         C286   1.483       .  S
C37          C40   1.370       .  D
C37         C237   1.479       .  S
C38         C306   1.484       .  S
C39         C317   1.478       .  S
C40         C346   1.485       .  S
C41          H42   1.112       .  S
C41          C47   1.523       .  S
C41          C46   1.529       .  S
C41          C45   1.527       .  S
C43          H44   1.107       .  S
C43          C49   1.553       .  S
C43          C48   1.559       .  S
C43          C50   1.544       .  S
C45          C48   1.387       .  D
C45         C137   1.482       .  S
C46          C49   1.376       .  D
C46         C126   1.494       .  S
C47          C50   1.362       .  D
C47         C166   1.468       .  S
C48         C177   1.510       .  S
C49         C226   1.483       .  S
C50         C197   1.485       .  S
C51          H52   1.111       .  S
C51          C57   1.543       .  S
C51          C55   1.534       .  S
C51        C1240   1.541       .  S
C53          H54   1.110       .  S
C53          C58   1.548       .  S
C53          C60   1.542       .  S
C53        C1243   1.539       .  S
C55          C58   1.380       .  D
C55         C186   1.484       .  S
C56        C1235   1.543   1_455  S
C56          C59   1.378       .  D
C56         C217   1.491       .  S
C57          C60   1.378       .  D
C57         C206   1.504       .  S
C58         C297   1.499       .  S
C59        C1237   1.539   1_455  S
C59         C337   1.494       .  S
C60         C326   1.488       .  S
O61         Ni67   1.900       .  S
O61          C82   1.264       .  A
O62         Ni85   1.917   1_554  S
O62          C71   1.270       .  A
O63        Ni659   1.899   1_655  S
O63       Ni1269   1.901       .  S
O63       Ni1855   1.926       .  S
O63        H1270   0.967       .  S
C64          O81   1.281   1_565  A
C64         O665   1.279       .  A
C64         C157   1.479   1_565  S
O65         Ni84   1.918       .  S
O65          C71   1.268       .  A
O66         Ni84   1.903   1_556  S
O66          C68   1.267       .  A
Ni67         O72   1.905       .  S
Ni67        O662   1.906   1_545  S
Ni67        O655   1.898   1_445  S
C68          O78   1.269       .  A
C68         C377   1.479       .  S
O69       Ni1269   1.928   1_455  S
O69          C75   1.281       .  A
O70        Ni659   1.908       .  S
O70          C75   1.276       .  A
C71         C146   1.483       .  S
O72          C74   1.267   1_556  A
O73         Ni84   1.910       .  S
O73         C656   1.278       .  A
C74         O672   1.270   1_545  A
C74         C117   1.483       .  S
C75         C397   1.465       .  S
H76          O77   0.966       .  S
O77         Ni85   1.912   1_554  S
O77         Ni84   1.898       .  S
O77        Ni671   1.906   1_554  S
O78        Ni671   1.922       .  S
Ni79         O83   1.924       .  S
Ni79         O81   1.924   1_556  S
Ni79        O670   1.924   1_545  S
Ni79       O1839   1.926   1_545  S
Ni79        O669   1.903   1_546  S
O80       Ni1269   1.923   1_454  S
O80         C666   1.269       .  A
C82        O1267   1.267   1_455  A
C82         C366   1.479       .  S
O83        C1266   1.268       .  A
Ni85       O1253   1.925       .  S
Ni85       O1264   1.924   1_556  S
Ni85       O1247   1.903       .  S
H86        O1247   0.967       .  S
O87         Ni93   1.900       .  S
O87         C108   1.269       .  A
O88        Ni111   1.906       .  S
O88        C1281   1.270       .  A
O89         Ni93   1.909       .  S
O89        Ni105   1.928       .  S
O89        Ni703   1.909       .  S
O89         H112   0.968       .  S
C90         O107   1.273   1_455  A
C90          O99   1.265       .  A
C90         C526   1.490       .  S
O91        Ni110   1.905       .  S
O91          C97   1.270       .  A
O92        Ni110   1.899       .  S
O92          C94   1.272       .  A
Ni93         O96   1.922       .  S
Ni93         O98   1.894       .  S
C94         O696   1.282   1_545  A
C94         C246   1.485       .  S
O95        Ni111   1.929       .  S
O95         C101   1.268       .  A
O96         C693   1.265       .  A
C97        O1272   1.270       .  A
C97         C477   1.476       .  S
O98         C100   1.270       .  A
O99        Ni702   1.916       .  S
C100        O106   1.283       .  A
C100        C506   1.486       .  S
C101        O688   1.264   1_545  A
C101        C277   1.485       .  S
H102       O1287   0.966       .  S
O103      Ni1887   1.910   1_455  S
O103      Ni1289   1.908   1_455  S
O103       Ni702   1.905       .  S
O103       H1286   0.966   1_455  S
O104      Ni1289   1.962   1_455  S
O104        C686   1.281       .  A
Ni105       O109   1.914       .  S
Ni105      O1288   1.959       .  S
Ni105      O1291   1.934       .  S
Ni105      O1287   1.910       .  S
O106       Ni703   1.962       .  S
O107      Ni1289   1.939       .  S
C108        O109   1.272       .  A
C108        C266   1.480       .  S
Ni110       O691   1.911   1_545  S
Ni110       O695   1.908   1_545  S
Ni111       O698   1.963   1_545  S
Ni111       O681   1.909   1_545  S
Ni111      O1879   1.911   1_545  S
C113        C114   1.404       .  A
C113        C118   1.397       .  A
C113        H123   1.083       .  S
C114        C119   1.484       .  S
C114        C115   1.406       .  A
C115        C116   1.402       .  A
C115        F120   1.357       .  S
C116        C117   1.407       .  A
C116        H121   1.083   1_545  S
C117        C118   1.409       .  A
C118        F714   1.358   1_554  S
C119        C124   1.404       .  A
C119        C128   1.405       .  A
F122        C710   1.358   1_556  S
C124        C125   1.396       .  A
C124        F129   1.358       .  S
C125        C126   1.404       .  A
C125        H130   1.080       .  S
C126        C127   1.410       .  A
C127        C128   1.403       .  A
C127        F131   1.356       .  S
C128        H132   1.083       .  S
C133        C134   1.402       .  A
C133        C138   1.395       .  A
C133        H143   1.083       .  S
C134        C139   1.481       .  S
C134        C135   1.409       .  A
C135        C136   1.400       .  A
C135        F140   1.357       .  S
C136        C137   1.402       .  A
C136        H141   1.083       .  S
C137        C138   1.406       .  A
C138        F142   1.355       .  S
C139        C144   1.406       .  A
C139        C148   1.402       .  A
C144        C145   1.399       .  A
C144        F149   1.357       .  S
C145        C146   1.406       .  A
C145        H150   1.083       .  S
C146        C147   1.411       .  A
C147        C148   1.398       .  A
C147        F151   1.358       .  S
C148        H152   1.083       .  S
C153        C154   1.407       .  A
C153        C158   1.400       .  A
C153        H163   1.083       .  S
C154        C159   1.477       .  S
C154        C155   1.402       .  A
C155        C156   1.389   1_545  A
C155        F160   1.358   1_545  S
C156        C157   1.408   1_565  A
C156        H161   1.083       .  S
C157        C158   1.408       .  A
C158        F754   1.357       .  S
C159        C164   1.406       .  A
C159        C168   1.406       .  A
F162        C750   1.357       .  S
C164        C165   1.397       .  A
C164        F169   1.357       .  S
C165        C166   1.400       .  A
C165        H170   1.083       .  S
C166        C167   1.398       .  A
C167        C168   1.392       .  A
C167        F171   1.357       .  S
C168        H172   1.083       .  S
C173        C174   1.408       .  A
C173        C178   1.400       .  A
C173        H183   1.082       .  S
C174        C179   1.505       .  S
C174        C175   1.412       .  A
C175        C176   1.399       .  A
C175        F180   1.356       .  S
C176        C177   1.408       .  A
C176        H181   1.080       .  S
C177        C178   1.411       .  A
C178        F182   1.352       .  S
C179        C184   1.417       .  A
C179        C188   1.410       .  A
C184        C185   1.401       .  A
C184        F189   1.357       .  S
C185        C186   1.399       .  A
C185        H190   1.083       .  S
C186        C187   1.402       .  A
C187        C188   1.397       .  A
C187        F191   1.356       .  S
C188        H192   1.080       .  S
C193        C194   1.407       .  A
C193        C198   1.400       .  A
C193        H203   1.083       .  S
C194        C199   1.495       .  S
C194        C195   1.411       .  A
C195        C196   1.404       .  A
C195        F200   1.357       .  S
C196        C197   1.403       .  A
C196        H201   1.083       .  S
C197        C198   1.404       .  A
C198        F202   1.356       .  S
C199        C208   1.408       .  A
C199        C796   1.406       .  A
C204        C205   1.400       .  A
C204        C791   1.407       .  A
C204        F209   1.357       .  S
C205        C206   1.408       .  A
C205        H210   1.082       .  S
C206        C799   1.407       .  A
C207        C208   1.406       .  A
C207        C798   1.407   1_545  A
C207        F211   1.353       .  S
C208        H212   1.083       .  S
C213        C214   1.403       .  A
C213        C810   1.397   1_545  A
C213        H223   1.083   1_545  S
C214        C219   1.485       .  S
C214        C215   1.408       .  A
C215        C216   1.400       .  A
C215        F220   1.357       .  S
C216        C809   1.401       .  A
C216        H221   1.077       .  S
C217        C218   1.410       .  A
C217        C808   1.401       .  A
C218        C805   1.399       .  A
C218        F222   1.358       .  S
C219        C224   1.408       .  A
C219        C228   1.405       .  A
C224        C225   1.399       .  A
C224        F229   1.358       .  S
C225        C226   1.402       .  A
C225        H230   1.079       .  S
C226        C227   1.405       .  A
C227        C228   1.399       .  A
C227        F231   1.357       .  S
C228        H232   1.083       .  S
C233        C234   1.402       .  A
C233        C238   1.396       .  A
C233        H243   1.083       .  S
C234        C239   1.475       .  S
C234        C235   1.405       .  A
C235        C236   1.399       .  A
C235        F240   1.357       .  S
C236        C237   1.401       .  A
C236        H241   1.084       .  S
C237        C238   1.405       .  A
C238        F242   1.356       .  S
C239        C244   1.402       .  A
C239        C248   1.403       .  A
C244        C245   1.393       .  A
C244        F249   1.358       .  S
C245        C246   1.407       .  A
C245        H250   1.083       .  S
C246        C839   1.412   1_545  A
C247        C838   1.412       .  A
C247        C840   1.404       .  A
C247        F251   1.357       .  S
C248        C839   1.402   1_545  A
C248        H844   1.083   1_545  S
H252        C840   1.083       .  S
C253        C254   1.401       .  A
C253        C258   1.390       .  A
C253        H263   1.084       .  S
C254        C259   1.471       .  S
C254        C255   1.404       .  A
C255        C256   1.398       .  A
C255        F260   1.358       .  S
C256        C257   1.406       .  A
C256        H261   1.081       .  S
C257        C258   1.404       .  A
C258        F262   1.357       .  S
C259        C264   1.399       .  A
C259        C268   1.405       .  A
C264        C265   1.385       .  A
C264        F269   1.358       .  S
C265        C266   1.408       .  A
C265        H270   1.083       .  S
C266        C267   1.409       .  A
C267        C268   1.403       .  A
C267        F271   1.357       .  S
C268        H272   1.083       .  S
C273        C274   1.400       .  A
C273        C278   1.394       .  A
C273        H875   1.084       .  S
C274        C279   1.482       .  S
C274        C275   1.408       .  A
C275        C276   1.405       .  A
C275        F280   1.357       .  S
C276        C277   1.408       .  A
C276        H281   1.083       .  S
C277        C278   1.411       .  A
C278        F874   1.358       .  S
C279        C284   1.410       .  A
C279        C288   1.400       .  A
F282        C870   1.358       .  S
H283        C865   1.084       .  S
C284        C285   1.400       .  A
C284        F289   1.357       .  S
C285        C286   1.400       .  A
C285        H290   1.083       .  S
C286        C287   1.408       .  A
C287        C288   1.398       .  A
C287        F291   1.356       .  S
C288        H292   1.083       .  S
C293        C294   1.405       .  A
C293        C298   1.398       .  A
C293        H303   1.082       .  S
C294        C299   1.501       .  S
C294        C295   1.415       .  A
C295        C296   1.406       .  A
C295        F300   1.357       .  S
C296        C297   1.402       .  A
C296        H301   1.081       .  S
C297        C298   1.409       .  A
C298        F302   1.354       .  S
C299        C304   1.412       .  A
C299        C308   1.412       .  A
C304        C305   1.400       .  A
C304        F309   1.357       .  S
C305        C306   1.400       .  A
C305        H310   1.083       .  S
C306        C307   1.403       .  A
C307        C308   1.403       .  A
C307        F311   1.358       .  S
C308        H312   1.082       .  S
C313        C314   1.405       .  A
C313        C318   1.399       .  A
C313        H323   1.083       .  S
C314        C319   1.482       .  S
C314        C315   1.407       .  A
C315        C316   1.398       .  A
C315        F912   1.357       .  S
C316        C317   1.401       .  A
C316        H321   1.084       .  S
C317        C318   1.405       .  A
C318        F322   1.357       .  S
C319        C324   1.405       .  A
C319        C920   1.406       .  A
F320        C907   1.357       .  S
C324        C325   1.398       .  A
C324        F329   1.358       .  S
C325        C918   1.405       .  A
C325        H330   1.084       .  S
C326        C327   1.403       .  A
C326        C917   1.405       .  A
C327        C328   1.401       .  A
C327        F331   1.355       .  S
C328        C911   1.407       .  A
C328        H332   1.083       .  S
C333        C334   1.412       .  A
C333        C338   1.407   1_545  A
C333        H343   1.082   1_545  S
C334        C339   1.503       .  S
C334        C335   1.409       .  A
C335        C336   1.396       .  A
C335        F340   1.357       .  S
C336        C929   1.406       .  A
C336        H341   1.082       .  S
C337        C928   1.405       .  A
C337        C930   1.405       .  A
C338        C929   1.408   1_565  A
C338        F934   1.357       .  S
C339        C344   1.414       .  A
C339        C348   1.411       .  A
F342        C930   1.357       .  S
C344        C345   1.398       .  A
C344        F349   1.357       .  S
C345        C346   1.398       .  A
C345        H350   1.082       .  S
C346        C347   1.404       .  A
C347        C348   1.404       .  A
C347        F351   1.357       .  S
C348        H352   1.082       .  S
C353        C354   1.405       .  A
C353        C358   1.394       .  A
C353        H363   1.083       .  S
C354        C359   1.484       .  S
C354        C355   1.408       .  A
C355        C356   1.402       .  A
C355        F360   1.357       .  S
C356        C357   1.404       .  A
C356        H361   1.083       .  S
C357        C358   1.403       .  A
C358        F362   1.357       .  S
C359        C364   1.404       .  A
C359        C368   1.408       .  A
C364        C365   1.391       .  A
C364        F369   1.358       .  S
C365        C366   1.405       .  A
C365        H370   1.083       .  S
C366        C367   1.407       .  A
C367        C368   1.404       .  A
C367       F1555   1.357   1_455  S
C368        H372   1.083       .  S
F371       C1551   1.357       .  S
C373        C374   1.400       .  A
C373        C378   1.398       .  A
C373        H383   1.083       .  S
C374        C379   1.469       .  S
C374        C375   1.402       .  A
C375        C376   1.395       .  A
C375        F380   1.358       .  S
C376        C377   1.406       .  A
C376        H381   1.083       .  S
C377        C378   1.411       .  A
C378        F382   1.357       .  S
C379        C384   1.403       .  A
C379        C388   1.403       .  A
C384        C385   1.394       .  A
C384        F389   1.357       .  S
C385        C386   1.402       .  A
C385        H390   1.084       .  S
C386        C387   1.403       .  A
C387        C388   1.396       .  A
C387        F391   1.357       .  S
C388        H392   1.083       .  S
C393        C394   1.406       .  A
C393        C398   1.397       .  A
C393        H403   1.083       .  S
C394        C399   1.475       .  S
C394        C395   1.404       .  A
C395        C396   1.392       .  A
C395        F400   1.358       .  S
C396        C397   1.403       .  A
C396        H401   1.084       .  S
C397        C398   1.402       .  A
C398        F402   1.357       .  S
C399        C404   1.408       .  A
C399        C408   1.403       .  A
C404        C405   1.393       .  A
C404        F409   1.357       .  S
C405        C406   1.398       .  A
C405        H410   1.083       .  S
C406        C407   1.402       .  A
C407        C408   1.393       .  A
C407        F411   1.358       .  S
C408        H412   1.083       .  S
C413        C414   1.406       .  A
C413        C418   1.398       .  A
C413        H423   1.083       .  S
C414        C419   1.491       .  S
C414        C415   1.410       .  A
C415        C416   1.402       .  A
C415        F420   1.357       .  S
C416        C417   1.403       .  A
C416        H421   1.083       .  S
C417        C418   1.406       .  A
C418        F422   1.357       .  S
C419        C424   1.408       .  A
C419        C428   1.410       .  A
C424        C425   1.396       .  A
C424        F429   1.357       .  S
C425        C426   1.403       .  A
C425        H430   1.082       .  S
C426        C427   1.401       .  A
C427        C428   1.403       .  A
C427        F431   1.357       .  S
C428        H432   1.083       .  S
C433        C434   1.405       .  A
C433        C438   1.399       .  A
C433        H443   1.083       .  S
C434        C439   1.491       .  S
C434        C435   1.410       .  A
C435        C436   1.404       .  A
C435        F440   1.357       .  S
C436        C437   1.403       .  A
C436        H441   1.083       .  S
C437        C438   1.406       .  A
C438        F442   1.358       .  S
C439        C444   1.407       .  A
C439        C448   1.409       .  A
C444        C445   1.399       .  A
C444        F449   1.357       .  S
C445        C446   1.404       .  A
C445       H1634   1.083   1_455  S
C446        C447   1.404       .  A
C447        C448   1.405       .  A
C447       F1043   1.357       .  S
C448        H452   1.083       .  S
H450       C1629   1.083       .  S
F451       C1039   1.357   1_545  S
C453        C454   1.403       .  A
C453        C458   1.395       .  A
C453        H463   1.083       .  S
C454        C459   1.478       .  S
C454        C455   1.409       .  A
C455        C456   1.397       .  A
C455        F460   1.358       .  S
C456        C457   1.398       .  A
C456        H461   1.083       .  S
C457        C458   1.405       .  A
C458        F462   1.358       .  S
C459        C464   1.406       .  A
C459        C468   1.405       .  A
C464        C465   1.396       .  A
C464        F469   1.357       .  S
C465        C466   1.401       .  A
C465        H470   1.082       .  S
C466        C467   1.402       .  A
C467        C468   1.396       .  A
C467        F471   1.355   1_455  S
C468        H472   1.083       .  S
C473        C474   1.403       .  A
C473        C478   1.401       .  A
C473        H483   1.083       .  S
C474        C479   1.467       .  S
C474        C475   1.399       .  A
C475        C476   1.386       .  A
C475        F480   1.358       .  S
C476        C477   1.408       .  A
C476        H481   1.083       .  S
C477        C478   1.409       .  A
C478        F482   1.357       .  S
C479        C484   1.403       .  A
C479        C488   1.403       .  A
C484        C485   1.388       .  A
C484        F489   1.358       .  S
C485        C486   1.400       .  A
C485        H490   1.084       .  S
C486        C487   1.405       .  A
C487        C488   1.398       .  A
C487        F491   1.357       .  S
C488        H492   1.083       .  S
C493        C494   1.407       .  A
C493        C498   1.401       .  A
C493        H503   1.083       .  S
C494        C499   1.483       .  S
C494        C495   1.407       .  A
C495        C496   1.396       .  A
C495        F500   1.357       .  S
C496        C497   1.399       .  A
C496        H501   1.080       .  S
C497        C498   1.405       .  A
C498        F502   1.357       .  S
C499        C504   1.407       .  A
C499        C508   1.401       .  A
C504        C505   1.401       .  A
C504        F509   1.357       .  S
C505        C506   1.407       .  A
C505        H510   1.083       .  S
C506        C507   1.412       .  A
C507        C508   1.396       .  A
C507        F511   1.358       .  S
C508        H512   1.083       .  S
C513        C514   1.407       .  A
C513        C518   1.406       .  A
C513        H523   1.083       .  S
C514        C519   1.489       .  S
C514        C515   1.407       .  A
C515        C516   1.393       .  A
C515        F520   1.358       .  S
C516        C517   1.402       .  A
C516        H521   1.079       .  S
C517        C518   1.409       .  A
C518        F522   1.356       .  S
C519        C524   1.411       .  A
C519        C528   1.400       .  A
C524        C525   1.410       .  A
C524        F529   1.357       .  S
C525        C526   1.408       .  A
C525        H530   1.083   1_455  S
C526        C527   1.413       .  A
C527        C528   1.391       .  A
C527        F531   1.358       .  S
C528        H532   1.084       .  S
C533        C534   1.410       .  A
C533        C538   1.402       .  A
C533        H543   1.083       .  S
C534        C539   1.496       .  S
C534        C535   1.411       .  A
C535        C536   1.400       .  A
C535        F540   1.357       .  S
C536        C537   1.401       .  A
C536        H541   1.080   1_455  S
C537        C538   1.403       .  A
C538        F542   1.357       .  S
C539        C544   1.413       .  A
C539        C548   1.404       .  A
C544        C545   1.405       .  A
C544        F549   1.357       .  S
C545        C546   1.403       .  A
C545        H550   1.081       .  S
C546        C547   1.410       .  A
C547        C548   1.397       .  A
C547        F551   1.357       .  S
C548        H552   1.083       .  S
C553        C554   1.409       .  A
C553        C558   1.402       .  A
C553        H563   1.083       .  S
C554        C559   1.493       .  S
C554        C555   1.410       .  A
C555        C556   1.395       .  A
C555        F560   1.357       .  S
C556        C557   1.398       .  A
C556        H561   1.078       .  S
C557        C558   1.403       .  A
C558        F562   1.357       .  S
C559        C564   1.408       .  A
C559        C568   1.411       .  A
C564        C565   1.392       .  A
C564        F569   1.357       .  S
C565        C566   1.403       .  A
C565        H570   1.082       .  S
C566        C567   1.406       .  A
C567        C568   1.405       .  A
C567        F571   1.357       .  S
C568        H572   1.083       .  S
C573        C574   1.406       .  A
C573        C578   1.398       .  A
C573        H583   1.083       .  S
C574        C579   1.487       .  S
C574        C575   1.409       .  A
C575        C576   1.401       .  A
C575        F580   1.357       .  S
C576        C577   1.401       .  A
C576        H581   1.083   1_455  S
C577        C578   1.404       .  A
C578       F1174   1.358       .  S
C579        C584   1.406       .  A
C579        C588   1.408       .  A
F582       C1170   1.358   1_545  S
C584        C585   1.397       .  A
C584        F589   1.357       .  S
C585        C586   1.404       .  A
C585        H590   1.083       .  S
C586        C587   1.405       .  A
C587        C588   1.404       .  A
C587        F591   1.356       .  S
C588        H592   1.083       .  S
C593        H594   1.112       .  S
C593        C599   1.522       .  S
C593        C598   1.524       .  S
C593        C597   1.527       .  S
C595        H596   1.111       .  S
C595        C601   1.550       .  S
C595        C600   1.549       .  S
C595        C602   1.555       .  S
C597        C600   1.376       .  D
C597       C1078   1.470       .  S
C598        C601   1.375       .  D
C598       C1089   1.485       .  S
C599        C602   1.375       .  D
C599       C1109   1.490       .  S
C600       C1138   1.501       .  S
C601       C1158   1.485       .  S
C602       C1178   1.484       .  S
C603        H604   1.112       .  S
C603        C609   1.524       .  S
C603        C608   1.519       .  S
C603        C607   1.522       .  S
C605        H606   1.111       .  S
C605        C611   1.545       .  S
C605        C610   1.547       .  S
C605        C612   1.540       .  S
C607        C610   1.374       .  D
C607        C949   1.484       .  S
C608        C611   1.370       .  D
C608        C998   1.465       .  S
C609        C612   1.372       .  D
C609        C978   1.469       .  S
C610       C1049   1.472       .  S
C611       C1029   1.485       .  S
C612       C1009   1.483       .  S
C613        H614   1.111       .  S
C613        C619   1.537       .  S
C613       C1802   1.536   1_455  S
C615        H616   1.111       .  S
C615       C1805   1.538   1_455  S
C615        C622   1.538       .  S
C617        C620   1.374       .  D
C617       C1129   1.495       .  S
C618       C1797   1.536       .  S
C618        C621   1.371       .  D
C618       C1149   1.480       .  S
C619        C622   1.374       .  D
C619       C1169   1.479       .  S
C620       C1058   1.474       .  S
C621       C1799   1.539       .  S
C621       C1018   1.483       .  S
C622       C1038   1.488       .  S
C623        H624   1.112       .  S
C623        C629   1.531       .  S
C623        C628   1.525       .  S
C623        C627   1.529       .  S
C625        H626   1.111       .  S
C625        C631   1.547       .  S
C625        C630   1.544       .  S
C625        C632   1.541       .  S
C627        C630   1.373       .  D
C627        C849   1.474       .  S
C628        C631   1.373       .  D
C628        C878   1.483       .  S
C629        C632   1.371       .  D
C629        C829   1.481       .  S
C630        C898   1.485       .  S
C631        C909   1.477       .  S
C632        C938   1.478       .  S
C633        H634   1.112       .  S
C633        C639   1.523       .  S
C633        C638   1.530       .  S
C633        C637   1.526       .  S
C635        H636   1.107       .  S
C635        C641   1.553       .  S
C635        C640   1.562       .  S
C635        C642   1.547       .  S
C637        C640   1.388       .  D
C637        C729   1.483       .  S
C638        C641   1.376       .  D
C638        C718   1.489       .  S
C639        C642   1.362       .  D
C639        C758   1.471       .  S
C640        C769   1.513       .  S
C641        C818   1.487       .  S
C642        C789   1.486       .  S
C643        H644   1.111       .  S
C643        C649   1.542       .  S
C643       C1832   1.542       .  S
C643        C647   1.535       .  S
C645        H646   1.110       .  S
C645       C1835   1.539       .  S
C645        C650   1.545       .  S
C645        C652   1.541       .  S
C647        C650   1.379       .  D
C647        C778   1.484       .  S
C648       C1827   1.544   1_455  S
C648        C651   1.381       .  D
C648        C809   1.490   1_565  S
C649        C652   1.378       .  D
C649        C798   1.504       .  S
C650        C889   1.496       .  S
C651       C1829   1.543   1_455  S
C651        C929   1.504   1_565  S
C652        C918   1.485   1_565  S
O653       Ni659   1.902       .  S
O653        C674   1.265       .  A
O654       Ni677   1.919   1_554  S
O654        C663   1.270       .  A
O655      Ni1861   1.902       .  S
O655      Ni1263   1.925   1_565  S
O655       H1862   0.967       .  S
C656        O673   1.281       .  A
C656        C749   1.478       .  S
O657       Ni676   1.912       .  S
O657        C663   1.265       .  A
O658       Ni676   1.896   1_556  S
O658        C660   1.265       .  A
Ni659       O664   1.911       .  S
C660        O670   1.268       .  A
C660        C969   1.481       .  S
O661      Ni1861   1.928   1_455  S
O661        C667   1.280       .  A
O662        C667   1.276       .  A
C663        C738   1.479       .  S
O664        C666   1.268   1_556  A
O665       Ni676   1.911       .  S
C666        C709   1.482       .  S
C667        C989   1.465       .  S
H668        O669   0.966       .  S
O669       Ni677   1.914   1_554  S
O669       Ni676   1.895       .  S
Ni671       O675   1.927       .  S
Ni671       O673   1.925   1_556  S
Ni671      O1247   1.924       .  S
O672      Ni1861   1.928   1_454  S
C674       O1859   1.269   1_455  A
C674        C958   1.481       .  S
O675       C1858   1.268       .  A
Ni677      O1845   1.929       .  S
Ni677      O1856   1.928   1_556  S
Ni677      O1839   1.900       .  S
H678       O1839   0.966       .  S
O679       Ni685   1.897       .  S
O679        C700   1.269       .  A
O680       Ni703   1.905       .  S
O680       C1873   1.269       .  A
O681       Ni685   1.909       .  S
O681       Ni697   1.930       .  S
O681        H704   0.968       .  S
C682        O699   1.272   1_455  A
C682        O691   1.262       .  A
C682       C1118   1.485       .  S
O683       Ni702   1.907       .  S
O683        C689   1.270       .  A
O684       Ni702   1.897       .  S
O684        C686   1.270       .  A
Ni685       O688   1.920       .  S
Ni685       O690   1.898       .  S
C686        C838   1.489       .  S
O687       Ni703   1.925       .  S
O687        C693   1.268       .  A
C689       O1864   1.271       .  A
C689       C1069   1.477       .  S
O690        C692   1.271       .  A
C692        O698   1.284       .  A
C692       C1098   1.489       .  S
C693        C869   1.485       .  S
H694       O1879   0.966       .  S
O695      Ni1295   1.915   1_465  S
O695      Ni1881   1.912   1_455  S
O695       H1878   0.966   1_455  S
O696      Ni1881   1.958   1_455  S
Ni697      O1880   1.956       .  S
Ni697       O701   1.912       .  S
Ni697      O1883   1.933       .  S
Ni697      O1879   1.910       .  S
O699      Ni1881   1.940       .  S
C700        O701   1.271       .  A
C700        C858   1.478       .  S
Ni703      O1287   1.912       .  S
C705        C706   1.404       .  A
C705        C710   1.397       .  A
C705        H715   1.083       .  S
C706        C711   1.483       .  S
C706        C707   1.405       .  A
C707        C708   1.402       .  A
C707        F712   1.357       .  S
C708        C709   1.407       .  A
C708        H713   1.083       .  S
C709        C710   1.407       .  A
C711        C716   1.404       .  A
C711        C720   1.406       .  A
C716        C717   1.394       .  A
C716        F721   1.357       .  S
C717        C718   1.403       .  A
C717        H722   1.080       .  S
C718        C719   1.408       .  A
C719        C720   1.403       .  A
C719        F723   1.357       .  S
C720        H724   1.083       .  S
C725        C726   1.399       .  A
C725        C730   1.393       .  A
C725        H735   1.083       .  S
C726        C731   1.478       .  S
C726        C727   1.409       .  A
C727        C728   1.402       .  A
C727        F732   1.357       .  S
C728        C729   1.403       .  A
C728        H733   1.083       .  S
C729        C730   1.405       .  A
C730        F734   1.353       .  S
C731        C736   1.406       .  A
C731        C740   1.401       .  A
C736        C737   1.398       .  A
C736        F741   1.357       .  S
C737        C738   1.404       .  A
C737        H742   1.083       .  S
C738        C739   1.411       .  A
C739        C740   1.398       .  A
C739        F743   1.358       .  S
C740        H744   1.083       .  S
C745        C746   1.406       .  A
C745        C750   1.401       .  A
C745        H755   1.083       .  S
C746        C751   1.475       .  S
C746        C747   1.401       .  A
C747        C748   1.389       .  A
C747        F752   1.358       .  S
C748        C749   1.408       .  A
C748        H753   1.083       .  S
C749        C750   1.407       .  A
C751        C756   1.405       .  A
C751        C760   1.405       .  A
C756        C757   1.397       .  A
C756        F761   1.357       .  S
C757        C758   1.401       .  A
C757        H762   1.082       .  S
C758        C759   1.399       .  A
C759        C760   1.393       .  A
C759        F763   1.356       .  S
C760        H764   1.083       .  S
C765        C766   1.408       .  A
C765        C770   1.402       .  A
C765        H775   1.082       .  S
C766        C771   1.502       .  S
C766        C767   1.410       .  A
C767        C768   1.397       .  A
C767        F772   1.357       .  S
C768        C769   1.409       .  A
C768        H773   1.079       .  S
C769        C770   1.413       .  A
C770        F774   1.352       .  S
C771        C776   1.416       .  A
C771        C780   1.410       .  A
C776        C777   1.402       .  A
C776        F781   1.357       .  S
C777        C778   1.401       .  A
C777        H782   1.083       .  S
C778        C779   1.401       .  A
C779        C780   1.396       .  A
C779        F783   1.355       .  S
C780        H784   1.081       .  S
C785        C786   1.407       .  A
C785        C790   1.401       .  A
C785        H795   1.083       .  S
C786        C791   1.496       .  S
C786        C787   1.412       .  A
C787        C788   1.404       .  A
C787        F792   1.357       .  S
C788        C789   1.402       .  A
C788        H793   1.083       .  S
C789        C790   1.405       .  A
C790        F794   1.357       .  S
C791        C800   1.408       .  A
C796        C797   1.399   1_545  A
C796        F801   1.357       .  S
C797        C798   1.408       .  A
C797        H802   1.082       .  S
C799        C800   1.405       .  A
C799        F803   1.352       .  S
C800        H804   1.083       .  S
C805        C806   1.403       .  A
C805        H815   1.083       .  S
C806        C811   1.487       .  S
C806        C807   1.409       .  A
C807        C808   1.401       .  A
C807        F812   1.357       .  S
C808        H813   1.079       .  S
C809        C810   1.409   1_545  A
C810        F814   1.358       .  S
C811        C816   1.408       .  A
C811        C820   1.405       .  A
C816        C817   1.400       .  A
C816        F821   1.358       .  S
C817        C818   1.402       .  A
C817        H822   1.079       .  S
C818        C819   1.406       .  A
C819        C820   1.401       .  A
C819        F823   1.357       .  S
C820        H824   1.083       .  S
C825        C826   1.404       .  A
C825        C830   1.398       .  A
C825        H835   1.083       .  S
C826        C831   1.481       .  S
C826        C827   1.406       .  A
C827        C828   1.400       .  A
C827        F832   1.357       .  S
C828        C829   1.402       .  A
C828        H833   1.083       .  S
C829        C830   1.405       .  A
C830        F834   1.356       .  S
C831        C836   1.403       .  A
C831        C840   1.404       .  A
C836        C837   1.395       .  A
C836        F841   1.358       .  S
C837        C838   1.408       .  A
C837        H842   1.083       .  S
C839        F843   1.357       .  S
C845        C846   1.402       .  A
C845        C850   1.389       .  A
C845        H855   1.084       .  S
C846        C851   1.468       .  S
C846        C847   1.403       .  A
C847        C848   1.396       .  A
C847        F852   1.357       .  S
C848        C849   1.404       .  A
C848        H853   1.081       .  S
C849        C850   1.403       .  A
C850        F854   1.356       .  S
C851        C856   1.399       .  A
C851        C860   1.405       .  A
C856        C857   1.384       .  A
C856        F861   1.358       .  S
C857        C858   1.408       .  A
C857        H862   1.083       .  S
C858        C859   1.409       .  A
C859        C860   1.401       .  A
C859        F863   1.357       .  S
C860        H864   1.083       .  S
C865        C866   1.400       .  A
C865        C870   1.395       .  A
C866        C871   1.481       .  S
C866        C867   1.406       .  A
C867        C868   1.403       .  A
C867        F872   1.357       .  S
C868        C869   1.407       .  A
C868        H873   1.083       .  S
C869        C870   1.411       .  A
C871        C876   1.409       .  A
C871        C880   1.400       .  A
C876        C877   1.401       .  A
C876        F881   1.357       .  S
C877        C878   1.401       .  A
C877        H882   1.083       .  S
C878        C879   1.408       .  A
C879        C880   1.397       .  A
C879        F883   1.356       .  S
C880        H884   1.083       .  S
C885        C886   1.407       .  A
C885        C890   1.397       .  A
C885        H895   1.082       .  S
C886        C891   1.505       .  S
C886        C887   1.417       .  A
C887        C888   1.406       .  A
C887        F892   1.357       .  S
C888        C889   1.401       .  A
C888        H893   1.081       .  S
C889        C890   1.406       .  A
C890        F894   1.355       .  S
C891        C896   1.413       .  A
C891        C900   1.414       .  A
C896        C897   1.400       .  A
C896        F901   1.356       .  S
C897        C898   1.400       .  A
C897        H902   1.082       .  S
C898        C899   1.402       .  A
C899        C900   1.403       .  A
C899        F903   1.357       .  S
C900        H904   1.082       .  S
C905        C906   1.406       .  A
C905        C910   1.400       .  A
C905        H915   1.083       .  S
C906        C911   1.485       .  S
C906        C907   1.408       .  A
C907        C908   1.399       .  A
C908        C909   1.400       .  A
C908        H913   1.084       .  S
C909        C910   1.404       .  A
C910        F914   1.357       .  S
C911        C916   1.406       .  A
C916        C917   1.398       .  A
C916        F921   1.358       .  S
C917        H922   1.083       .  S
C918        C919   1.403   1_545  A
C919        C920   1.400   1_565  A
C919        F923   1.355       .  S
C920        H924   1.083   1_545  S
C925        C926   1.411       .  A
C925        C930   1.403       .  A
C925        H935   1.082       .  S
C926        C931   1.498       .  S
C926        C927   1.410       .  A
C927        C928   1.395       .  A
C927        F932   1.357       .  S
C928        H933   1.082       .  S
C931        C936   1.412       .  A
C931        C940   1.412       .  A
C936        C937   1.396       .  A
C936        F941   1.356       .  S
C937        C938   1.397       .  A
C937        H942   1.081       .  S
C938        C939   1.401       .  A
C939        C940   1.402       .  A
C939        F943   1.357       .  S
C940        H944   1.082       .  S
C945        C946   1.404       .  A
C945        C950   1.394       .  A
C945        H955   1.083       .  S
C946        C951   1.484       .  S
C946        C947   1.408       .  A
C947        C948   1.403       .  A
C947        F952   1.357       .  S
C948        C949   1.405       .  A
C948        H953   1.083       .  S
C949        C950   1.404       .  A
C950        F954   1.357       .  S
C951        C956   1.404       .  A
C951        C960   1.408       .  A
C956        C957   1.392       .  A
C956        F961   1.358       .  S
C957        C958   1.406       .  A
C957        H962   1.083       .  S
C958        C959   1.408       .  A
C959        C960   1.405       .  A
C959       F2147   1.357   1_455  S
C960        H964   1.083       .  S
F963       C2143   1.357       .  S
C965        C966   1.403       .  A
C965        C970   1.400       .  A
C965        H975   1.083       .  S
C966        C971   1.472       .  S
C966        C967   1.402       .  A
C967        C968   1.391       .  A
C967        F972   1.358       .  S
C968        C969   1.406       .  A
C968        H973   1.083       .  S
C969        C970   1.411       .  A
C970        F974   1.357   1_565  S
C971        C976   1.404       .  A
C971        C980   1.405       .  A
C976        C977   1.395       .  A
C976        F981   1.357       .  S
C977        C978   1.400       .  A
C977        H982   1.084       .  S
C978        C979   1.401       .  A
C979        C980   1.394       .  A
C979        F983   1.358       .  S
C980        H984   1.083       .  S
C985        C986   1.407       .  A
C985        C990   1.397       .  A
C985        H995   1.083       .  S
C986        C991   1.474       .  S
C986        C987   1.404       .  A
C987        C988   1.391       .  A
C987        F992   1.358       .  S
C988        C989   1.403       .  A
C988        H993   1.084       .  S
C989        C990   1.402       .  A
C990        F994   1.357       .  S
C991        C996   1.409       .  A
C991       C1000   1.403       .  A
C996        C997   1.394       .  A
C996       F1001   1.357       .  S
C997        C998   1.398       .  A
C997       H1002   1.083       .  S
C998        C999   1.401       .  A
C999       C1000   1.392       .  A
C999       F1003   1.357       .  S
C1000      H1004   1.083       .  S
C1005      C1006   1.405       .  A
C1005      C1010   1.393       .  A
C1005      H1015   1.083       .  S
C1006      C1011   1.487       .  S
C1006      C1007   1.410       .  A
C1007      C1008   1.402       .  A
C1007      F1012   1.357       .  S
C1008      C1009   1.403       .  A
C1008      H1013   1.083       .  S
C1009      C1010   1.405       .  A
C1010      F1014   1.357       .  S
C1011      C1016   1.407       .  A
C1011      C1020   1.409       .  A
C1016      C1017   1.393       .  A
C1016      F1021   1.358       .  S
C1017      C1018   1.402       .  A
C1017      H1022   1.080       .  S
C1018      C1019   1.402       .  A
C1019      C1020   1.403       .  A
C1019      F1023   1.357       .  S
C1020      H1024   1.083       .  S
C1025      C1026   1.405       .  A
C1025      C1030   1.399       .  A
C1025      H1035   1.083       .  S
C1026      C1031   1.489       .  S
C1026      C1027   1.409       .  A
C1027      C1028   1.404       .  A
C1027      F1032   1.357       .  S
C1028      C1029   1.403       .  A
C1028      H1033   1.083       .  S
C1029      C1030   1.406       .  A
C1030      F1034   1.357       .  S
C1031      C1036   1.406       .  A
C1031      C1040   1.409       .  A
C1036      C1037   1.397       .  A
C1036      F1041   1.357       .  S
C1037      C1038   1.404       .  A
C1037      H2226   1.083   1_455  S
C1038      C1039   1.405       .  A
C1039      C1040   1.405       .  A
C1040      H1044   1.083       .  S
H1042      C2221   1.083       .  S
C1045      C1046   1.405       .  A
C1045      C1050   1.395       .  A
C1045      H1055   1.083       .  S
C1046      C1051   1.484       .  S
C1046      C1047   1.412       .  A
C1047      C1048   1.396       .  A
C1047      F1052   1.357       .  S
C1048      C1049   1.397       .  A
C1048      H1053   1.083       .  S
C1049      C1050   1.405       .  A
C1050      F1054   1.358       .  S
C1051      C1056   1.410       .  A
C1051      C1060   1.406       .  A
C1056      C1057   1.397       .  A
C1056      F1061   1.357       .  S
C1057      C1058   1.400       .  A
C1057      H1062   1.082       .  S
C1058      C1059   1.400       .  A
C1059      C1060   1.394       .  A
C1059      F1063   1.354   1_455  S
C1060      H1064   1.083       .  S
C1065      C1066   1.404       .  A
C1065      C1070   1.401       .  A
C1065      H1075   1.083       .  S
C1066      C1071   1.468       .  S
C1066      C1067   1.399       .  A
C1067      C1068   1.386       .  A
C1067      F1072   1.358       .  S
C1068      C1069   1.408       .  A
C1068      H1073   1.083       .  S
C1069      C1070   1.408       .  A
C1070      F1074   1.357       .  S
C1071      C1076   1.404       .  A
C1071      C1080   1.403       .  A
C1076      C1077   1.388       .  A
C1076      F1081   1.358       .  S
C1077      C1078   1.400       .  A
C1077      H1082   1.083       .  S
C1078      C1079   1.405       .  A
C1079      C1080   1.397       .  A
C1079      F1083   1.357       .  S
C1080      H1084   1.083       .  S
C1085      C1086   1.406       .  A
C1085      C1090   1.403       .  A
C1085      H1095   1.083       .  S
C1086      C1091   1.485       .  S
C1086      C1087   1.407       .  A
C1087      C1088   1.397       .  A
C1087      F1092   1.358       .  S
C1088      C1089   1.400       .  A
C1088      H1093   1.080       .  S
C1089      C1090   1.405       .  A
C1090      F1094   1.357       .  S
C1091      C1096   1.406       .  A
C1091      C1100   1.402       .  A
C1096      C1097   1.400       .  A
C1096      F1101   1.357       .  S
C1097      C1098   1.407       .  A
C1097      H1102   1.083       .  S
C1098      C1099   1.413       .  A
C1099      C1100   1.399       .  A
C1099      F1103   1.358       .  S
C1100      H1104   1.083       .  S
C1105      C1106   1.406       .  A
C1105      C1110   1.404       .  A
C1105      H1115   1.083       .  S
C1106      C1111   1.486       .  S
C1106      C1107   1.406       .  A
C1107      C1108   1.393       .  A
C1107      F1112   1.358       .  S
C1108      C1109   1.401       .  A
C1108      H1113   1.077       .  S
C1109      C1110   1.408       .  A
C1110      F1114   1.356       .  S
C1111      C1116   1.410       .  A
C1111      C1120   1.400       .  A
C1116      C1117   1.408       .  A
C1116      F1121   1.357       .  S
C1117      C1118   1.406       .  A
C1117      H1122   1.083       .  S
C1118      C1119   1.412       .  A
C1119      C1120   1.391       .  A
C1119      F1123   1.358       .  S
C1120      H1124   1.084       .  S
C1125      C1126   1.409       .  A
C1125      C1130   1.405       .  A
C1125      H1135   1.083       .  S
C1126      C1131   1.499       .  S
C1126      C1127   1.410       .  A
C1127      C1128   1.403       .  A
C1127      F1132   1.357       .  S
C1128      C1129   1.402       .  A
C1128      H1133   1.078   1_455  S
C1129      C1130   1.406       .  A
C1130      F1134   1.356       .  S
C1131      C1136   1.413       .  A
C1131      C1140   1.405       .  A
C1136      C1137   1.407       .  A
C1136      F1141   1.357       .  S
C1137      C1138   1.404       .  A
C1137      H1142   1.081       .  S
C1138      C1139   1.411       .  A
C1139      C1140   1.401       .  A
C1139      F1143   1.357       .  S
C1140      H1144   1.083       .  S
C1145      C1146   1.407       .  A
C1145      C1150   1.401       .  A
C1145      H1155   1.083       .  S
C1146      C1151   1.485       .  S
C1146      C1147   1.407       .  A
C1147      C1148   1.394       .  A
C1147      F1152   1.358       .  S
C1148      C1149   1.400       .  A
C1148      H1153   1.079   1_565  S
C1149      C1150   1.402       .  A
C1150      F1154   1.357       .  S
C1151      C1156   1.406       .  A
C1151      C1160   1.408       .  A
C1156      C1157   1.392       .  A
C1156      F1161   1.357       .  S
C1157      C1158   1.403       .  A
C1157      H1162   1.082       .  S
C1158      C1159   1.406       .  A
C1159      C1160   1.402       .  A
C1159      F1163   1.357       .  S
C1160      H1164   1.083       .  S
C1165      C1166   1.404       .  A
C1165      C1170   1.396       .  A
C1165      H1175   1.083       .  S
C1166      C1171   1.484       .  S
C1166      C1167   1.409       .  A
C1167      C1168   1.402       .  A
C1167      F1172   1.357       .  S
C1168      C1169   1.401       .  A
C1168      H1173   1.082   1_455  S
C1169      C1170   1.404       .  A
C1171      C1176   1.405       .  A
C1171      C1180   1.407       .  A
C1176      C1177   1.396       .  A
C1176      F1181   1.357       .  S
C1177      C1178   1.404       .  A
C1177      H1182   1.084       .  S
C1178      C1179   1.404       .  A
C1179      C1180   1.403       .  A
C1179      F1183   1.356       .  S
C1180      H1184   1.083       .  S
C1185      H1186   1.112       .  S
C1185      C1191   1.522       .  S
C1185      C1190   1.525       .  S
C1185      C1189   1.523       .  S
C1187      H1188   1.111       .  S
C1187      C1193   1.547       .  S
C1187      C1192   1.548       .  S
C1187      C1194   1.555       .  S
C1189      C1192   1.374       .  D
C1189      C1670   1.471       .  S
C1190      C1193   1.374       .  D
C1190      C1681   1.479       .  S
C1191      C1194   1.375       .  D
C1191      C1701   1.489       .  S
C1192      C1730   1.492       .  S
C1193      C1750   1.488       .  S
C1194      C1770   1.483       .  S
C1195      H1196   1.112       .  S
C1195      C1201   1.523       .  S
C1195      C1200   1.516       .  S
C1195      C1199   1.520       .  S
C1197      H1198   1.111       .  S
C1197      C1203   1.548       .  S
C1197      C1202   1.550       .  S
C1197      C1204   1.545       .  S
C1199      C1202   1.375       .  D
C1199      C1541   1.483       .  S
C1200      C1203   1.370       .  D
C1200      C1590   1.462       .  S
C1201      C1204   1.372       .  D
C1201      C1570   1.471       .  S
C1202      C1641   1.478       .  S
C1203      C1621   1.489       .  S
C1204      C1601   1.486       .  S
C1205      H1206   1.111       .  S
C1205      C1211   1.538       .  S
C1205      C1801   1.538       .  S
C1207      H1208   1.111       .  S
C1207      C1804   1.541       .  S
C1207      C1214   1.541       .  S
C1209      C1797   1.535   1_545  S
C1209      C1212   1.375       .  D
C1209      C1721   1.488       .  S
C1210      C1213   1.372       .  D
C1210      C1741   1.479       .  S
C1211      C1214   1.376       .  D
C1211      C1761   1.479       .  S
C1212      C1799   1.542   1_545  S
C1212      C1650   1.476       .  S
C1213      C1610   1.487       .  S
C1214      C1630   1.494       .  S
C1215      H1216   1.112       .  S
C1215      C1221   1.528       .  S
C1215      C1220   1.522       .  S
C1215      C1219   1.528       .  S
C1217      H1218   1.111       .  S
C1217      C1223   1.549       .  S
C1217      C1222   1.545       .  S
C1217      C1224   1.542       .  S
C1219      C1222   1.372       .  D
C1219      C1441   1.473       .  S
C1220      C1223   1.373       .  D
C1220      C1470   1.479       .  S
C1221      C1224   1.370       .  D
C1221      C1421   1.479       .  S
C1222      C1490   1.485       .  S
C1223      C1501   1.479       .  S
C1224      C1530   1.478       .  S
C1225      H1226   1.112       .  S
C1225      C1231   1.524       .  S
C1225      C1230   1.530       .  S
C1225      C1229   1.526       .  S
C1227      H1228   1.107       .  S
C1227      C1233   1.554       .  S
C1227      C1232   1.562       .  S
C1227      C1234   1.545       .  S
C1229      C1232   1.389       .  D
C1229      C1321   1.484       .  S
C1230      C1233   1.377       .  D
C1230      C1310   1.495       .  S
C1231      C1234   1.362       .  D
C1231      C1350   1.469       .  S
C1232      C1361   1.514       .  S
C1233      C1410   1.485       .  S
C1234      C1381   1.488       .  S
C1235      H1236   1.111       .  S
C1235      C1241   1.546       .  S
C1235      C1239   1.536       .  S
C1237      H1238   1.111       .  S
C1237      C1242   1.548       .  S
C1237      C1244   1.542       .  S
C1239      C1242   1.380       .  D
C1239      C1370   1.486       .  S
C1240      C1243   1.379       .  D
C1240      C1401   1.488       .  S
C1241      C1244   1.378       .  D
C1241      C1390   1.506       .  S
C1242      C1481   1.499       .  S
C1243      C1521   1.496       .  S
C1244      C1510   1.489       .  S
O1245     Ni1251   1.899       .  S
O1245      C1266   1.264       .  A
O1246     Ni1269   1.921   1_554  S
O1246      C1255   1.270       .  A
O1247     Ni1843   1.900       .  S
C1248      O1265   1.281       .  A
C1248      O1849   1.279   1_545  A
C1248      C1341   1.479       .  S
O1249     Ni1268   1.912       .  S
O1249      C1255   1.265       .  A
O1250     Ni1268   1.897   1_556  S
O1250      C1252   1.265       .  A
Ni1251     O1846   1.905   1_545  S
Ni1251     O1256   1.908       .  S
Ni1251     O1839   1.897   1_545  S
C1252      O1262   1.270       .  A
C1252      C1561   1.479       .  S
O1253      C1259   1.279       .  A
O1254     Ni1843   1.902       .  S
O1254      C1259   1.275       .  A
C1255      C1330   1.481       .  S
O1256      C1258   1.267   1_556  A
O1257     Ni1268   1.911       .  S
O1257      C1840   1.279       .  A
C1258      O1856   1.271   1_545  A
C1258      C1301   1.485       .  S
C1259      C1581   1.461       .  S
H1260      O1261   0.966       .  S
O1261     Ni1269   1.916   1_554  S
O1261     Ni1855   1.904   1_554  S
O1261     Ni1268   1.894       .  S
O1262     Ni1855   1.927       .  S
Ni1263     O1854   1.920   1_545  S
Ni1263     O1267   1.925       .  S
Ni1263     O1265   1.925   1_556  S
Ni1263     O1853   1.902   1_546  S
O1264      C1850   1.270       .  A
C1266      C1550   1.480       .  S
O1271     Ni1277   1.898       .  S
O1271      C1292   1.269       .  A
O1272     Ni1295   1.908   1_455  S
O1273     Ni1277   1.910       .  S
O1273     Ni1887   1.911       .  S
O1273     Ni1289   1.932       .  S
O1273      H1296   0.968       .  S
C1274      O1291   1.272       .  A
C1274      O1283   1.265       .  A
C1274      C1710   1.485       .  S
O1275     Ni1294   1.911       .  S
O1275      C1281   1.271       .  A
O1276     Ni1294   1.901       .  S
O1276      C1278   1.271   1_545  A
Ni1277     O1280   1.921       .  S
Ni1277     O1282   1.896       .  S
C1278      O1880   1.280       .  A
C1278      C1430   1.487   1_565  S
O1279     Ni1295   1.924       .  S
O1279      C1285   1.269       .  A
O1280      C1877   1.264       .  A
C1281      C1661   1.475       .  S
O1282      C1284   1.270       .  A
O1283     Ni1886   1.916       .  S
C1284      O1290   1.284       .  A
C1284      C1690   1.487       .  S
C1285      O1872   1.266   1_545  A
C1285      C1461   1.482       .  S
O1287     Ni1886   1.907       .  S
O1288      C1870   1.281       .  A
Ni1289     O1293   1.912       .  S
O1290     Ni1887   1.963       .  S
C1292      O1293   1.271       .  A
C1292      C1450   1.478       .  S
Ni1294     O1875   1.914   1_545  S
Ni1294     O1879   1.908   1_545  S
Ni1295     O1882   1.959   1_545  S
Ni1295     O1865   1.910   1_545  S
C1297      C1298   1.404       .  A
C1297      C1302   1.398       .  A
C1297      H1307   1.083       .  S
C1298      C1303   1.486       .  S
C1298      C1299   1.406       .  A
C1299      C1300   1.403       .  A
C1299      F1304   1.357       .  S
C1300      C1301   1.408       .  A
C1300      H1305   1.083   1_545  S
C1301      C1302   1.409       .  A
C1302      F1898   1.358   1_554  S
C1303      C1308   1.404       .  A
C1303      C1312   1.406       .  A
F1306      C1894   1.358   1_556  S
C1308      C1309   1.396       .  A
C1308      F1313   1.357       .  S
C1309      C1310   1.404       .  A
C1309      H1314   1.080       .  S
C1310      C1311   1.410       .  A
C1311      C1312   1.404       .  A
C1311      F1315   1.356       .  S
C1312      H1316   1.083       .  S
C1317      C1318   1.400       .  A
C1317      C1322   1.394       .  A
C1317      H1327   1.083       .  S
C1318      C1323   1.480       .  S
C1318      C1319   1.409       .  A
C1319      C1320   1.401       .  A
C1319      F1324   1.357       .  S
C1320      C1321   1.402       .  A
C1320      H1325   1.083       .  S
C1321      C1322   1.406       .  A
C1322      F1326   1.353       .  S
C1323      C1328   1.407       .  A
C1323      C1332   1.401       .  A
C1328      C1329   1.400       .  A
C1328      F1333   1.357       .  S
C1329      C1330   1.405       .  A
C1329      H1334   1.083       .  S
C1330      C1331   1.411       .  A
C1331      C1332   1.396       .  A
C1331      F1335   1.358       .  S
C1332      H1336   1.083       .  S
C1337      C1338   1.406       .  A
C1337      C1342   1.401       .  A
C1337      H1347   1.083       .  S
C1338      C1343   1.475       .  S
C1338      C1339   1.401       .  A
C1339      C1340   1.388       .  A
C1339      F1344   1.358   1_545  S
C1340      C1341   1.407       .  A
C1340      H1345   1.083   1_545  S
C1341      C1342   1.408       .  A
C1342      F1938   1.357       .  S
C1343      C1348   1.405       .  A
C1343      C1352   1.405       .  A
F1346      C1934   1.357       .  S
C1348      C1349   1.397       .  A
C1348      F1353   1.357       .  S
C1349      C1350   1.401       .  A
C1349      H1354   1.083       .  S
C1350      C1351   1.398       .  A
C1351      C1352   1.392       .  A
C1351      F1355   1.357       .  S
C1352      H1356   1.083       .  S
C1357      C1358   1.408       .  A
C1357      C1362   1.402       .  A
C1357      H1367   1.081       .  S
C1358      C1363   1.507       .  S
C1358      C1359   1.412       .  A
C1359      C1360   1.399       .  A
C1359      F1364   1.356       .  S
C1360      C1361   1.409       .  A
C1360      H1365   1.079       .  S
C1361      C1362   1.412       .  A
C1362      F1366   1.352       .  S
C1363      C1368   1.417       .  A
C1363      C1372   1.411       .  A
C1368      C1369   1.402       .  A
C1368      F1373   1.357       .  S
C1369      C1370   1.400       .  A
C1369      H1374   1.083       .  S
C1370      C1371   1.402       .  A
C1371      C1372   1.398       .  A
C1371      F1375   1.355       .  S
C1372      H1376   1.080       .  S
C1377      C1378   1.407       .  A
C1377      C1382   1.402       .  A
C1377      H1387   1.083       .  S
C1378      C1383   1.498       .  S
C1378      C1379   1.412       .  A
C1379      C1380   1.405       .  A
C1379      F1384   1.357       .  S
C1380      C1381   1.403       .  A
C1380      H1385   1.083       .  S
C1381      C1382   1.405       .  A
C1382      F1386   1.357       .  S
C1383      C1980   1.408       .  A
C1383      C1392   1.408       .  A
C1388      C1975   1.408       .  A
C1388      C1389   1.402       .  A
C1388      F1393   1.357       .  S
C1389      C1390   1.409       .  A
C1389      H1394   1.082       .  S
C1390      C1983   1.406       .  A
C1391      C1982   1.406       .  A
C1391      C1392   1.406       .  A
C1391      F1395   1.352       .  S
C1392      H1396   1.083       .  S
C1397      C1398   1.403       .  A
C1397      C1994   1.397   1_545  A
C1397      H1407   1.083   1_545  S
C1398      C1403   1.484       .  S
C1398      C1399   1.408       .  A
C1399      C1400   1.400       .  A
C1399      F1404   1.357       .  S
C1400      C1993   1.401       .  A
C1400      H1405   1.079       .  S
C1401      C1992   1.400       .  A
C1401      C1402   1.409       .  A
C1402      C1989   1.397       .  A
C1402      F1406   1.358       .  S
C1403      C1408   1.407       .  A
C1403      C1412   1.405       .  A
C1408      C1409   1.399       .  A
C1408      F1413   1.358       .  S
C1409      C1410   1.402       .  A
C1409      H1414   1.078       .  S
C1410      C1411   1.406       .  A
C1411      C1412   1.399       .  A
C1411      F1415   1.357       .  S
C1412      H1416   1.083       .  S
C1417      C1418   1.404       .  A
C1417      C1422   1.397       .  A
C1417      H1427   1.083       .  S
C1418      C1423   1.480       .  S
C1418      C1419   1.406       .  A
C1419      C1420   1.398       .  A
C1419      F1424   1.357       .  S
C1420      C1421   1.401       .  A
C1420      H1425   1.084       .  S
C1421      C1422   1.405       .  A
C1422      F1426   1.356       .  S
C1423      C1428   1.403       .  A
C1423      C1432   1.404   1_545  A
C1428      C1429   1.394       .  A
C1428      F1433   1.358       .  S
C1429      C1430   1.407       .  A
C1429      H1434   1.083       .  S
C1430      C2023   1.412   1_545  A
C1431      C2022   1.412       .  A
C1431      C2024   1.403       .  A
C1431      F1435   1.357       .  S
C1432      C2023   1.402       .  A
C1432      H2028   1.083       .  S
H1436      C2024   1.083       .  S
C1437      C1438   1.402       .  A
C1437      C1442   1.390       .  A
C1437      H1447   1.084       .  S
C1438      C1443   1.468       .  S
C1438      C1439   1.403       .  A
C1439      C1440   1.395       .  A
C1439      F1444   1.357       .  S
C1440      C1441   1.404       .  A
C1440      H1445   1.081       .  S
C1441      C1442   1.402       .  A
C1442      F1446   1.357       .  S
C1443      C1448   1.398       .  A
C1443      C1452   1.404       .  A
C1448      C1449   1.385       .  A
C1448      F1453   1.358       .  S
C1449      C1450   1.409       .  A
C1449      H1454   1.083       .  S
C1450      C1451   1.409       .  A
C1451      C1452   1.401       .  A
C1451      F1455   1.357       .  S
C1452      H1456   1.083       .  S
C1457      C1458   1.400       .  A
C1457      C1462   1.395       .  A
C1457      H2059   1.084       .  S
C1458      C1463   1.479       .  S
C1458      C1459   1.407       .  A
C1459      C1460   1.403       .  A
C1459      F1464   1.357       .  S
C1460      C1461   1.407       .  A
C1460      H1465   1.083       .  S
C1461      C1462   1.410       .  A
C1462      F2058   1.358       .  S
C1463      C1468   1.409       .  A
C1463      C1472   1.400       .  A
F1466      C2054   1.358       .  S
H1467      C2049   1.084       .  S
C1468      C1469   1.400       .  A
C1468      F1473   1.357       .  S
C1469      C1470   1.400       .  A
C1469      H1474   1.083       .  S
C1470      C1471   1.406       .  A
C1471      C1472   1.396       .  A
C1471      F1475   1.356       .  S
C1472      H1476   1.083       .  S
C1477      C1478   1.406       .  A
C1477      C1482   1.398       .  A
C1477      H1487   1.082       .  S
C1478      C1483   1.503       .  S
C1478      C1479   1.415       .  A
C1479      C1480   1.406       .  A
C1479      F1484   1.357       .  S
C1480      C1481   1.402       .  A
C1480      H1485   1.080       .  S
C1481      C1482   1.409       .  A
C1482      F1486   1.355       .  S
C1483      C1488   1.413       .  A
C1483      C1492   1.412       .  A
C1488      C1489   1.401       .  A
C1488      F1493   1.357       .  S
C1489      C1490   1.401       .  A
C1489      H1494   1.082       .  S
C1490      C1491   1.402       .  A
C1491      C1492   1.403       .  A
C1491      F1495   1.358       .  S
C1492      H1496   1.082       .  S
C1497      C1498   1.405       .  A
C1497      C1502   1.399       .  A
C1497      H1507   1.083       .  S
C1498      C1503   1.485       .  S
C1498      C1499   1.408       .  A
C1499      C1500   1.400       .  A
C1499      F2096   1.357       .  S
C1500      C1501   1.401       .  A
C1500      H1505   1.084       .  S
C1501      C1502   1.405       .  A
C1502      F1506   1.357       .  S
C1503      C1508   1.405       .  A
C1503      C2104   1.406       .  A
F1504      C2091   1.357       .  S
C1508      C1509   1.399       .  A
C1508      F1513   1.358       .  S
C1509      C2102   1.406       .  A
C1509      H1514   1.083       .  S
C1510      C2101   1.406       .  A
C1510      C1511   1.404       .  A
C1511      C1512   1.401       .  A
C1511      F1515   1.355       .  S
C1512      C2095   1.406       .  A
C1512      H1516   1.083       .  S
C1517      C1518   1.412       .  A
C1517      C1522   1.404   1_545  A
C1517      H1527   1.082   1_545  S
C1518      C1523   1.498       .  S
C1518      C1519   1.409       .  A
C1519      C1520   1.394       .  A
C1519      F1524   1.357       .  S
C1520      C2113   1.404       .  A
C1520      H1525   1.082       .  S
C1521      C2112   1.404       .  A
C1521      C2114   1.407       .  A
C1522      C2113   1.406   1_565  A
C1522      F2118   1.357       .  S
C1523      C1528   1.413       .  A
C1523      C1532   1.411       .  A
F1526      C2114   1.357       .  S
C1528      C1529   1.396       .  A
C1528      F1533   1.357       .  S
C1529      C1530   1.397       .  A
C1529      H1534   1.082       .  S
C1530      C1531   1.402       .  A
C1531      C1532   1.402       .  A
C1531      F1535   1.357       .  S
C1532      H1536   1.082       .  S
C1537      C1538   1.404       .  A
C1537      C1542   1.393       .  A
C1537      H1547   1.083       .  S
C1538      C1543   1.485       .  S
C1538      C1539   1.409       .  A
C1539      C1540   1.402       .  A
C1539      F1544   1.357       .  S
C1540      C1541   1.404       .  A
C1540      H1545   1.083       .  S
C1541      C1542   1.403       .  A
C1542      F1546   1.357       .  S
C1543      C1548   1.405       .  A
C1543      C1552   1.407       .  A
C1548      C1549   1.391       .  A
C1548      F1553   1.358       .  S
C1549      C1550   1.406       .  A
C1549      H1554   1.083       .  S
C1550      C1551   1.407       .  A
C1551      C1552   1.404       .  A
C1552      H1556   1.083       .  S
C1557      C1558   1.404       .  A
C1557      C1562   1.400       .  A
C1557      H1567   1.083       .  S
C1558      C1563   1.477       .  S
C1558      C1559   1.404       .  A
C1559      C1560   1.393       .  A
C1559      F1564   1.358       .  S
C1560      C1561   1.406       .  A
C1560      H1565   1.083       .  S
C1561      C1562   1.408       .  A
C1562      F1566   1.357       .  S
C1563      C1568   1.406       .  A
C1563      C1572   1.405       .  A
C1568      C1569   1.396       .  A
C1568      F1573   1.357       .  S
C1569      C1570   1.401       .  A
C1569      H1574   1.084       .  S
C1570      C1571   1.401       .  A
C1571      C1572   1.395       .  A
C1571      F1575   1.358       .  S
C1572      H1576   1.083       .  S
C1577      C1578   1.406       .  A
C1577      C1582   1.396       .  A
C1577      H1587   1.083       .  S
C1578      C1583   1.471       .  S
C1578      C1579   1.403       .  A
C1579      C1580   1.390       .  A
C1579      F1584   1.358       .  S
C1580      C1581   1.402       .  A
C1580      H1585   1.084       .  S
C1581      C1582   1.402       .  A
C1582      F1586   1.357       .  S
C1583      C1588   1.408       .  A
C1583      C1592   1.402       .  A
C1588      C1589   1.392       .  A
C1588      F1593   1.357       .  S
C1589      C1590   1.397       .  A
C1589      H1594   1.084       .  S
C1590      C1591   1.402       .  A
C1591      C1592   1.391       .  A
C1591      F1595   1.358       .  S
C1592      H1596   1.083       .  S
C1597      C1598   1.406       .  A
C1597      C1602   1.397       .  A
C1597      H1607   1.083       .  S
C1598      C1603   1.491       .  S
C1598      C1599   1.410       .  A
C1599      C1600   1.402       .  A
C1599      F1604   1.357       .  S
C1600      C1601   1.402       .  A
C1600      H1605   1.083       .  S
C1601      C1602   1.406       .  A
C1602      F1606   1.357       .  S
C1603      C1608   1.407       .  A
C1603      C1612   1.410       .  A
C1608      C1609   1.395       .  A
C1608      F1613   1.358       .  S
C1609      C1610   1.403       .  A
C1609      H1614   1.081       .  S
C1610      C1611   1.403       .  A
C1611      C1612   1.405       .  A
C1611      F1615   1.357       .  S
C1612      H1616   1.083       .  S
C1617      C1618   1.405       .  A
C1617      C1622   1.400       .  A
C1617      H1627   1.083       .  S
C1618      C1623   1.490       .  S
C1618      C1619   1.409       .  A
C1619      C1620   1.405       .  A
C1619      F1624   1.357       .  S
C1620      C1621   1.403       .  A
C1620      H1625   1.083       .  S
C1621      C1622   1.408       .  A
C1622      F1626   1.358       .  S
C1623      C1628   1.405       .  A
C1623      C1632   1.409       .  A
C1628      C1629   1.398       .  A
C1628      F1633   1.357       .  S
C1629      C1630   1.406       .  A
C1630      C1631   1.406       .  A
C1631      C1632   1.407       .  A
C1631      F2227   1.357       .  S
C1632      H1636   1.083       .  S
F1635      C2223   1.357       .  S
C1637      C1638   1.403       .  A
C1637      C1642   1.395       .  A
C1637      H1647   1.083       .  S
C1638      C1643   1.481       .  S
C1638      C1639   1.410       .  A
C1639      C1640   1.398       .  A
C1639      F1644   1.358       .  S
C1640      C1641   1.400       .  A
C1640      H1645   1.083       .  S
C1641      C1642   1.407       .  A
C1642      F1646   1.357       .  S
C1643      C1648   1.408       .  A
C1643      C1652   1.404       .  A
C1648      C1649   1.397       .  A
C1648      F1653   1.357       .  S
C1649      C1650   1.400       .  A
C1649      H1654   1.082       .  S
C1650      C1651   1.401       .  A
C1651      C1652   1.395       .  A
C1651      F1655   1.353       .  S
C1652      H1656   1.083       .  S
C1657      C1658   1.403       .  A
C1657      C1662   1.401       .  A
C1657      H1667   1.083       .  S
C1658      C1663   1.466       .  S
C1658      C1659   1.399       .  A
C1659      C1660   1.387       .  A
C1659      F1664   1.358       .  S
C1660      C1661   1.407       .  A
C1660      H1665   1.083       .  S
C1661      C1662   1.408       .  A
C1662      F1666   1.357       .  S
C1663      C1668   1.403       .  A
C1663      C1672   1.402       .  A
C1668      C1669   1.389       .  A
C1668      F1673   1.358       .  S
C1669      C1670   1.400       .  A
C1669      H1674   1.083       .  S
C1670      C1671   1.405       .  A
C1671      C1672   1.398       .  A
C1671      F1675   1.357       .  S
C1672      H1676   1.083       .  S
C1677      C1678   1.406       .  A
C1677      C1682   1.400       .  A
C1677      H1687   1.083       .  S
C1678      C1683   1.480       .  S
C1678      C1679   1.406       .  A
C1679      C1680   1.395       .  A
C1679      F1684   1.357       .  S
C1680      C1681   1.399       .  A
C1680      H1685   1.081       .  S
C1681      C1682   1.404       .  A
C1682      F1686   1.357       .  S
C1683      C1688   1.405       .  A
C1683      C1692   1.401       .  A
C1688      C1689   1.400       .  A
C1688      F1693   1.357       .  S
C1689      C1690   1.407       .  A
C1689      H1694   1.083       .  S
C1690      C1691   1.413       .  A
C1691      C1692   1.397       .  A
C1691      F1695   1.358       .  S
C1692      H1696   1.084       .  S
C1697      C1698   1.406       .  A
C1697      C1702   1.404       .  A
C1697      H1707   1.083       .  S
C1698      C1703   1.485       .  S
C1698      C1699   1.406       .  A
C1699      C1700   1.393       .  A
C1699      F1704   1.358       .  S
C1700      C1701   1.401       .  A
C1700      H1705   1.079       .  S
C1701      C1702   1.408       .  A
C1702      F1706   1.357       .  S
C1703      C1708   1.410       .  A
C1703      C1712   1.400       .  A
C1708      C1709   1.407       .  A
C1708      F1713   1.357       .  S
C1709      C1710   1.406       .  A
C1709      H1714   1.083       .  S
C1710      C1711   1.412       .  A
C1711      C1712   1.391       .  A
C1711      F1715   1.358       .  S
C1712      H1716   1.084       .  S
C1717      C1718   1.409       .  A
C1717      C1722   1.403       .  A
C1717      H1727   1.083       .  S
C1718      C1723   1.494       .  S
C1718      C1719   1.409       .  A
C1719      C1720   1.399       .  A
C1719      F1724   1.357       .  S
C1720      C1721   1.400       .  A
C1720      H1725   1.077       .  S
C1721      C1722   1.404       .  A
C1722      F1726   1.357       .  S
C1723      C1728   1.413       .  A
C1723      C1732   1.405       .  A
C1728      C1729   1.404       .  A
C1728      F1733   1.357       .  S
C1729      C1730   1.401       .  A
C1729      H1734   1.081       .  S
C1730      C1731   1.408       .  A
C1731      C1732   1.399       .  A
C1731      F1735   1.357       .  S
C1732      H1736   1.083       .  S
C1737      C1738   1.409       .  A
C1737      C1742   1.401       .  A
C1737      H1747   1.083       .  S
C1738      C1743   1.492       .  S
C1738      C1739   1.410       .  A
C1739      C1740   1.395       .  A
C1739      F1744   1.357       .  S
C1740      C1741   1.398       .  A
C1740      H1745   1.079       .  S
C1741      C1742   1.403       .  A
C1742      F1746   1.357       .  S
C1743      C1748   1.408       .  A
C1743      C1752   1.411       .  A
C1748      C1749   1.392       .  A
C1748      F1753   1.357       .  S
C1749      C1750   1.402       .  A
C1749      H1754   1.082       .  S
C1750      C1751   1.405       .  A
C1751      C1752   1.404       .  A
C1751      F1755   1.357       .  S
C1752      H1756   1.083       .  S
C1757      C1758   1.405       .  A
C1757      C1762   1.397       .  A
C1757      H1767   1.083       .  S
C1758      C1763   1.485       .  S
C1758      C1759   1.409       .  A
C1759      C1760   1.400       .  A
C1759      F1764   1.357       .  S
C1760      C1761   1.401       .  A
C1760      H1765   1.083       .  S
C1761      C1762   1.404       .  A
C1762      F2358   1.357       .  S
C1763      C1768   1.406       .  A
C1763      C1772   1.407       .  A
F1766      C2354   1.358   1_545  S
C1768      C1769   1.397       .  A
C1768      F1773   1.357       .  S
C1769      C1770   1.404       .  A
C1769      H1774   1.084       .  S
C1770      C1771   1.403       .  A
C1771      C1772   1.402       .  A
C1771      F1775   1.356       .  S
C1772      H1776   1.083       .  S
C1777      H1778   1.112       .  S
C1777      C1783   1.515       .  S
C1777      C1782   1.525       .  S
C1777      C1781   1.526       .  S
C1779      H1780   1.111       .  S
C1779      C1785   1.547       .  S
C1779      C1784   1.548       .  S
C1779      C1786   1.549       .  S
C1781      C1784   1.377       .  D
C1781      C2262   1.472       .  S
C1782      C1785   1.376       .  D
C1782      C2273   1.480       .  S
C1783      C1786   1.368       .  D
C1783      C2293   1.479       .  S
C1784      C2322   1.493       .  S
C1785      C2342   1.489       .  S
C1786      C2362   1.475       .  S
C1787      H1788   1.112       .  S
C1787      C1793   1.524       .  S
C1787      C1792   1.519       .  S
C1787      C1791   1.520       .  S
C1789      H1790   1.111       .  S
C1789      C1795   1.550       .  S
C1789      C1794   1.549       .  S
C1789      C1796   1.547       .  S
C1791      C1794   1.372       .  D
C1791      C2133   1.481       .  S
C1792      C1795   1.371       .  D
C1792      C2182   1.466       .  S
C1793      C1796   1.373       .  D
C1793      C2162   1.474       .  S
C1794      C2233   1.476       .  S
C1795      C2213   1.492       .  S
C1796      C2193   1.485       .  S
C1797      H1798   1.111       .  S
C1797      C1803   1.537       .  S
C1799      H1800   1.111       .  S
C1799      C1806   1.540       .  S
C1801      C1804   1.373       .  D
C1801      C2313   1.488       .  S
C1802      C1805   1.372       .  D
C1802      C2333   1.480       .  S
C1803      C1806   1.375       .  D
C1803      C2353   1.477       .  S
C1804      C2242   1.478       .  S
C1805      C2202   1.483       .  S
C1806      C2222   1.495       .  S
C1807      H1808   1.112       .  S
C1807      C1813   1.530       .  S
C1807      C1812   1.524       .  S
C1807      C1811   1.530       .  S
C1809      H1810   1.111       .  S
C1809      C1815   1.548       .  S
C1809      C1814   1.546       .  S
C1809      C1816   1.541       .  S
C1811      C1814   1.374       .  D
C1811      C2033   1.479       .  S
C1812      C1815   1.374       .  D
C1812      C2062   1.483       .  S
C1813      C1816   1.369       .  D
C1813      C2013   1.478       .  S
C1814      C2082   1.484       .  S
C1815      C2093   1.478       .  S
C1816      C2122   1.479       .  S
C1817      H1818   1.112       .  S
C1817      C1823   1.525       .  S
C1817      C1822   1.529       .  S
C1817      C1821   1.528       .  S
C1819      H1820   1.107       .  S
C1819      C1825   1.553       .  S
C1819      C1824   1.563       .  S
C1819      C1826   1.547       .  S
C1821      C1824   1.389       .  D
C1821      C1913   1.483       .  S
C1822      C1825   1.375       .  D
C1822      C1902   1.494       .  S
C1823      C1826   1.363       .  D
C1823      C1942   1.471       .  S
C1824      C1953   1.518       .  S
C1825      C2002   1.484       .  S
C1826      C1973   1.489       .  S
C1827      H1828   1.111       .  S
C1827      C1833   1.544       .  S
C1827      C1831   1.536       .  S
C1829      H1830   1.110       .  S
C1829      C1834   1.549       .  S
C1829      C1836   1.544       .  S
C1831      C1834   1.379       .  D
C1831      C1962   1.488       .  S
C1832      C1835   1.379       .  D
C1832      C1993   1.487   1_565  S
C1833      C1836   1.377       .  D
C1833      C1982   1.507   1_565  S
C1834      C2073   1.498       .  S
C1835      C2113   1.497   1_565  S
C1836      C2102   1.489   1_565  S
O1837     Ni1843   1.900       .  S
O1837      C1858   1.264       .  A
O1838     Ni1861   1.917   1_554  S
O1838      C1847   1.271       .  A
C1840      O1857   1.281       .  A
C1840      C1933   1.481       .  S
O1841     Ni1860   1.915       .  S
O1841      C1847   1.267       .  A
O1842     Ni1860   1.905   1_556  S
O1842      C1844   1.267       .  A
Ni1843     O1848   1.908       .  S
C1844      O1854   1.268       .  A
C1844      C2153   1.480       .  S
O1845      C1851   1.281       .  A
O1846      C1851   1.276       .  A
C1847      C1922   1.481       .  S
O1848      C1850   1.268   1_556  A
O1849     Ni1860   1.910       .  S
C1850      C1893   1.483       .  S
C1851      C2173   1.463       .  S
H1852      O1853   0.966       .  S
O1853     Ni1861   1.914   1_554  S
O1853     Ni1860   1.897       .  S
Ni1855     O1859   1.927       .  S
Ni1855     O1857   1.926   1_556  S
C1858      C2142   1.481       .  S
O1863     Ni1869   1.904       .  S
O1863      C1884   1.270       .  A
O1864     Ni1887   1.910   1_455  S
O1865     Ni1869   1.907       .  S
O1865     Ni1881   1.926       .  S
O1865      H1888   0.968       .  S
C1866      O1883   1.271       .  A
C1866      O1875   1.265       .  A
C1866      C2302   1.476       .  S
O1867     Ni1886   1.907       .  S
O1867      C1873   1.271       .  A
O1868     Ni1886   1.897       .  S
O1868      C1870   1.270       .  A
Ni1869     O1872   1.923       .  S
Ni1869     O1874   1.896       .  S
C1870      C2022   1.486       .  S
O1871     Ni1887   1.929       .  S
O1871      C1877   1.269       .  A
C1873      C2253   1.478       .  S
O1874      C1876   1.270       .  A
C1876      O1882   1.281       .  A
C1876      C2282   1.482       .  S
C1877      C2053   1.488       .  S
Ni1881     O1885   1.915       .  S
C1884      O1885   1.272       .  A
C1884      C2042   1.483       .  S
C1889      C1890   1.404       .  A
C1889      C1894   1.397       .  A
C1889      H1899   1.083       .  S
C1890      C1895   1.485       .  S
C1890      C1891   1.406       .  A
C1891      C1892   1.403       .  A
C1891      F1896   1.357       .  S
C1892      C1893   1.408       .  A
C1892      H1897   1.083       .  S
C1893      C1894   1.408       .  A
C1895      C1900   1.404       .  A
C1895      C1904   1.405       .  A
C1900      C1901   1.396       .  A
C1900      F1905   1.358       .  S
C1901      C1902   1.403       .  A
C1901      H1906   1.080       .  S
C1902      C1903   1.410       .  A
C1903      C1904   1.404       .  A
C1903      F1907   1.356       .  S
C1904      H1908   1.083       .  S
C1909      C1910   1.401       .  A
C1909      C1914   1.394       .  A
C1909      H1919   1.083       .  S
C1910      C1915   1.481       .  S
C1910      C1911   1.409       .  A
C1911      C1912   1.401       .  A
C1911      F1916   1.357       .  S
C1912      C1913   1.403       .  A
C1912      H1917   1.083       .  S
C1913      C1914   1.406       .  A
C1914      F1918   1.354       .  S
C1915      C1920   1.407       .  A
C1915      C1924   1.402       .  A
C1920      C1921   1.398       .  A
C1920      F1925   1.357       .  S
C1921      C1922   1.405       .  A
C1921      H1926   1.083       .  S
C1922      C1923   1.410       .  A
C1923      C1924   1.398       .  A
C1923      F1927   1.358       .  S
C1924      H1928   1.083       .  S
C1929      C1930   1.407       .  A
C1929      C1934   1.401       .  A
C1929      H1939   1.083       .  S
C1930      C1935   1.479       .  S
C1930      C1931   1.403       .  A
C1931      C1932   1.389       .  A
C1931      F1936   1.358       .  S
C1932      C1933   1.407       .  A
C1932      H1937   1.083       .  S
C1933      C1934   1.408       .  A
C1935      C1940   1.407       .  A
C1935      C1944   1.406       .  A
C1940      C1941   1.398       .  A
C1940      F1945   1.357       .  S
C1941      C1942   1.401       .  A
C1941      H1946   1.083       .  S
C1942      C1943   1.398       .  A
C1943      C1944   1.392       .  A
C1943      F1947   1.356       .  S
C1944      H1948   1.083       .  S
C1949      C1950   1.408       .  A
C1949      C1954   1.404       .  A
C1949      H1959   1.082       .  S
C1950      C1955   1.506       .  S
C1950      C1951   1.410       .  A
C1951      C1952   1.398       .  A
C1951      F1956   1.357       .  S
C1952      C1953   1.410       .  A
C1952      H1957   1.078       .  S
C1953      C1954   1.414       .  A
C1954      F1958   1.352       .  S
C1955      C1960   1.416       .  A
C1955      C1964   1.410       .  A
C1960      C1961   1.404       .  A
C1960      F1965   1.357       .  S
C1961      C1962   1.402       .  A
C1961      H1966   1.083       .  S
C1962      C1963   1.401       .  A
C1963      C1964   1.397       .  A
C1963      F1967   1.356       .  S
C1964      H1968   1.081       .  S
C1969      C1970   1.408       .  A
C1969      C1974   1.402       .  A
C1969      H1979   1.083       .  S
C1970      C1975   1.500       .  S
C1970      C1971   1.412       .  A
C1971      C1972   1.405       .  A
C1971      F1976   1.357       .  S
C1972      C1973   1.403       .  A
C1972      H1977   1.083       .  S
C1973      C1974   1.404       .  A
C1974      F1978   1.357       .  S
C1975      C1984   1.409       .  A
C1980      C1981   1.402   1_545  A
C1980      F1985   1.357       .  S
C1981      C1982   1.409   1_565  A
C1981      H1986   1.082       .  S
C1983      C1984   1.405       .  A
C1983      F1987   1.353       .  S
C1984      H1988   1.083       .  S
C1989      C1990   1.402       .  A
C1989      H1999   1.083       .  S
C1990      C1995   1.482       .  S
C1990      C1991   1.408       .  A
C1991      C1992   1.399       .  A
C1991      F1996   1.357       .  S
C1992      H1997   1.078       .  S
C1993      C1994   1.409   1_545  A
C1994      F1998   1.358       .  S
C1995      C2000   1.407       .  A
C1995      C2004   1.404       .  A
C2000      C2001   1.398       .  A
C2000      F2005   1.358       .  S
C2001      C2002   1.401       .  A
C2001      H2006   1.079       .  S
C2002      C2003   1.407       .  A
C2003      C2004   1.399       .  A
C2003      F2007   1.357       .  S
C2004      H2008   1.083       .  S
C2009      C2010   1.404       .  A
C2009      C2014   1.397       .  A
C2009      H2019   1.083       .  S
C2010      C2015   1.480       .  S
C2010      C2011   1.406       .  A
C2011      C2012   1.399       .  A
C2011      F2016   1.357       .  S
C2012      C2013   1.401       .  A
C2012      H2017   1.084       .  S
C2013      C2014   1.404       .  A
C2014      F2018   1.356       .  S
C2015      C2020   1.403       .  A
C2015      C2024   1.404       .  A
C2020      C2021   1.394       .  A
C2020      F2025   1.358       .  S
C2021      C2022   1.407       .  A
C2021      H2026   1.083       .  S
C2023      F2027   1.357       .  S
C2029      C2030   1.404       .  A
C2029      C2034   1.392       .  A
C2029      H2039   1.083       .  S
C2030      C2035   1.478       .  S
C2030      C2031   1.406       .  A
C2031      C2032   1.398       .  A
C2031      F2036   1.357       .  S
C2032      C2033   1.405       .  A
C2032      H2037   1.081       .  S
C2033      C2034   1.403       .  A
C2034      F2038   1.357       .  S
C2035      C2040   1.402       .  A
C2035      C2044   1.407       .  A
C2040      C2041   1.387       .  A
C2040      F2045   1.358       .  S
C2041      C2042   1.408       .  A
C2041      H2046   1.083       .  S
C2042      C2043   1.409       .  A
C2043      C2044   1.403       .  A
C2043      F2047   1.357       .  S
C2044      H2048   1.083       .  S
C2049      C2050   1.400       .  A
C2049      C2054   1.396       .  A
C2050      C2055   1.483       .  S
C2050      C2051   1.407       .  A
C2051      C2052   1.404       .  A
C2051      F2056   1.357       .  S
C2052      C2053   1.408       .  A
C2052      H2057   1.083       .  S
C2053      C2054   1.412       .  A
C2055      C2060   1.410       .  A
C2055      C2064   1.401       .  A
C2060      C2061   1.401       .  A
C2060      F2065   1.357       .  S
C2061      C2062   1.401       .  A
C2061      H2066   1.083       .  S
C2062      C2063   1.407       .  A
C2063      C2064   1.397       .  A
C2063      F2067   1.356       .  S
C2064      H2068   1.083       .  S
C2069      C2070   1.406       .  A
C2069      C2074   1.398       .  A
C2069      H2079   1.082       .  S
C2070      C2075   1.503       .  S
C2070      C2071   1.415       .  A
C2071      C2072   1.406       .  A
C2071      F2076   1.357       .  S
C2072      C2073   1.401       .  A
C2072      H2077   1.080       .  S
C2073      C2074   1.408       .  A
C2074      F2078   1.355       .  S
C2075      C2080   1.413       .  A
C2075      C2084   1.413       .  A
C2080      C2081   1.400       .  A
C2080      F2085   1.357       .  S
C2081      C2082   1.400       .  A
C2081      H2086   1.082       .  S
C2082      C2083   1.402       .  A
C2083      C2084   1.403       .  A
C2083      F2087   1.358       .  S
C2084      H2088   1.082       .  S
C2089      C2090   1.405       .  A
C2089      C2094   1.399       .  A
C2089      H2099   1.083       .  S
C2090      C2095   1.482       .  S
C2090      C2091   1.407       .  A
C2091      C2092   1.399       .  A
C2092      C2093   1.401       .  A
C2092      H2097   1.083       .  S
C2093      C2094   1.405       .  A
C2094      F2098   1.357       .  S
C2095      C2100   1.404       .  A
C2100      C2101   1.398       .  A
C2100      F2105   1.358       .  S
C2101      H2106   1.083       .  S
C2102      C2103   1.404   1_545  A
C2103      C2104   1.402   1_565  A
C2103      F2107   1.355       .  S
C2104      H2108   1.083   1_545  S
C2109      C2110   1.411       .  A
C2109      C2114   1.404       .  A
C2109      H2119   1.083       .  S
C2110      C2115   1.495       .  S
C2110      C2111   1.409       .  A
C2111      C2112   1.393       .  A
C2111      F2116   1.357       .  S
C2112      H2117   1.082       .  S
C2115      C2120   1.412       .  A
C2115      C2124   1.411       .  A
C2120      C2121   1.395       .  A
C2120      F2125   1.357       .  S
C2121      C2122   1.397       .  A
C2121      H2126   1.081       .  S
C2122      C2123   1.403       .  A
C2123      C2124   1.403       .  A
C2123      F2127   1.357       .  S
C2124      H2128   1.083       .  S
C2129      C2130   1.405       .  A
C2129      C2134   1.395       .  A
C2129      H2139   1.083       .  S
C2130      C2135   1.486       .  S
C2130      C2131   1.409       .  A
C2131      C2132   1.402       .  A
C2131      F2136   1.357       .  S
C2132      C2133   1.403       .  A
C2132      H2137   1.083       .  S
C2133      C2134   1.402       .  A
C2134      F2138   1.357       .  S
C2135      C2140   1.405       .  A
C2135      C2144   1.408       .  A
C2140      C2141   1.393       .  A
C2140      F2145   1.358       .  S
C2141      C2142   1.406       .  A
C2141      H2146   1.083       .  S
C2142      C2143   1.407       .  A
C2143      C2144   1.404       .  A
C2144      H2148   1.083       .  S
C2149      C2150   1.400       .  A
C2149      C2154   1.399       .  A
C2149      H2159   1.083       .  S
C2150      C2155   1.471       .  S
C2150      C2151   1.403       .  A
C2151      C2152   1.396       .  A
C2151      F2156   1.358       .  S
C2152      C2153   1.406       .  A
C2152      H2157   1.083       .  S
C2153      C2154   1.411       .  A
C2154      F2158   1.357       .  S
C2155      C2160   1.403       .  A
C2155      C2164   1.404       .  A
C2160      C2161   1.394       .  A
C2160      F2165   1.357       .  S
C2161      C2162   1.402       .  A
C2161      H2166   1.084       .  S
C2162      C2163   1.404       .  A
C2163      C2164   1.398       .  A
C2163      F2167   1.357       .  S
C2164      H2168   1.083       .  S
C2169      C2170   1.406       .  A
C2169      C2174   1.396       .  A
C2169      H2179   1.083       .  S
C2170      C2175   1.472       .  S
C2170      C2171   1.404       .  A
C2171      C2172   1.392       .  A
C2171      F2176   1.358       .  S
C2172      C2173   1.403       .  A
C2172      H2177   1.084       .  S
C2173      C2174   1.401       .  A
C2174      F2178   1.357       .  S
C2175      C2180   1.408       .  A
C2175      C2184   1.403       .  A
C2180      C2181   1.393       .  A
C2180      F2185   1.357       .  S
C2181      C2182   1.399       .  A
C2181      H2186   1.083       .  S
C2182      C2183   1.401       .  A
C2183      C2184   1.391       .  A
C2183      F2187   1.357       .  S
C2184      H2188   1.083       .  S
C2189      C2190   1.406       .  A
C2189      C2194   1.397       .  A
C2189      H2199   1.083       .  S
C2190      C2195   1.490       .  S
C2190      C2191   1.410       .  A
C2191      C2192   1.402       .  A
C2191      F2196   1.357       .  S
C2192      C2193   1.402       .  A
C2192      H2197   1.083       .  S
C2193      C2194   1.405       .  A
C2194      F2198   1.357       .  S
C2195      C2200   1.408       .  A
C2195      C2204   1.410       .  A
C2200      C2201   1.395       .  A
C2200      F2205   1.358       .  S
C2201      C2202   1.402       .  A
C2201      H2206   1.082       .  S
C2202      C2203   1.401       .  A
C2203      C2204   1.403       .  A
C2203      F2207   1.357       .  S
C2204      H2208   1.083       .  S
C2209      C2210   1.404       .  A
C2209      C2214   1.401       .  A
C2209      H2219   1.083       .  S
C2210      C2215   1.492       .  S
C2210      C2211   1.410       .  A
C2211      C2212   1.406       .  A
C2211      F2216   1.357       .  S
C2212      C2213   1.404       .  A
C2212      H2217   1.083       .  S
C2213      C2214   1.408       .  A
C2214      F2218   1.358       .  S
C2215      C2220   1.406       .  A
C2215      C2224   1.409       .  A
C2220      C2221   1.400       .  A
C2220      F2225   1.357       .  S
C2221      C2222   1.406       .  A
C2222      C2223   1.406       .  A
C2223      C2224   1.408       .  A
C2224      H2228   1.083       .  S
C2229      C2230   1.404       .  A
C2229      C2234   1.396       .  A
C2229      H2239   1.083       .  S
C2230      C2235   1.482       .  S
C2230      C2231   1.410       .  A
C2231      C2232   1.398       .  A
C2231      F2236   1.357       .  S
C2232      C2233   1.399       .  A
C2232      H2237   1.083       .  S
C2233      C2234   1.406       .  A
C2234      F2238   1.358       .  S
C2235      C2240   1.408       .  A
C2235      C2244   1.405       .  A
C2240      C2241   1.397       .  A
C2240      F2245   1.357       .  S
C2241      C2242   1.402       .  A
C2241      H2246   1.082       .  S
C2242      C2243   1.402       .  A
C2243      C2244   1.396       .  A
C2243      F2247   1.354       .  S
C2244      H2248   1.083       .  S
C2249      C2250   1.404       .  A
C2249      C2254   1.400       .  A
C2249      H2259   1.083       .  S
C2250      C2255   1.471       .  S
C2250      C2251   1.401       .  A
C2251      C2252   1.385       .  A
C2251      F2256   1.358       .  S
C2252      C2253   1.407       .  A
C2252      H2257   1.083       .  S
C2253      C2254   1.409       .  A
C2254      F2258   1.357       .  S
C2255      C2260   1.404       .  A
C2255      C2264   1.405       .  A
C2260      C2261   1.386       .  A
C2260      F2265   1.358       .  S
C2261      C2262   1.400       .  A
C2261      H2266   1.084       .  S
C2262      C2263   1.405       .  A
C2263      C2264   1.398       .  A
C2263      F2267   1.357       .  S
C2264      H2268   1.083       .  S
C2269      C2270   1.406       .  A
C2269      C2274   1.398       .  A
C2269      H2279   1.083       .  S
C2270      C2275   1.481       .  S
C2270      C2271   1.407       .  A
C2271      C2272   1.395       .  A
C2271      F2276   1.357       .  S
C2272      C2273   1.400       .  A
C2272      H2277   1.079       .  S
C2273      C2274   1.404       .  A
C2274      F2278   1.357       .  S
C2275      C2280   1.407       .  A
C2275      C2284   1.402       .  A
C2280      C2281   1.401       .  A
C2280      F2285   1.358       .  S
C2281      C2282   1.407       .  A
C2281      H2286   1.083       .  S
C2282      C2283   1.409       .  A
C2283      C2284   1.395       .  A
C2283      F2287   1.358       .  S
C2284      H2288   1.083       .  S
C2289      C2290   1.406       .  A
C2289      C2294   1.402       .  A
C2289      H2299   1.083       .  S
C2290      C2295   1.486       .  S
C2290      C2291   1.410       .  A
C2291      C2292   1.396       .  A
C2291      F2296   1.358       .  S
C2292      C2293   1.398       .  A
C2292      H2297   1.081       .  S
C2293      C2294   1.404       .  A
C2294      F2298   1.357       .  S
C2295      C2300   1.412       .  A
C2295      C2304   1.401       .  A
C2300      C2301   1.407       .  A
C2300      F2305   1.357       .  S
C2301      C2302   1.403       .  A
C2301      H2306   1.083       .  S
C2302      C2303   1.407       .  A
C2303      C2304   1.392       .  A
C2303      F2307   1.359       .  S
C2304      H2308   1.084       .  S
C2309      C2310   1.410       .  A
C2309      C2314   1.403       .  A
C2309      H2319   1.083       .  S
C2310      C2315   1.498       .  S
C2310      C2311   1.410       .  A
C2311      C2312   1.400       .  A
C2311      F2316   1.357       .  S
C2312      C2313   1.400       .  A
C2312      H2317   1.078       .  S
C2313      C2314   1.404       .  A
C2314      F2318   1.357       .  S
C2315      C2320   1.413       .  A
C2315      C2324   1.406       .  A
C2320      C2321   1.404       .  A
C2320      F2325   1.357       .  S
C2321      C2322   1.402       .  A
C2321      H2326   1.082       .  S
C2322      C2323   1.409       .  A
C2323      C2324   1.399       .  A
C2323      F2327   1.357       .  S
C2324      H2328   1.083       .  S
C2329      C2330   1.408       .  A
C2329      C2334   1.401       .  A
C2329      H2339   1.083       .  S
C2330      C2335   1.491       .  S
C2330      C2331   1.410       .  A
C2331      C2332   1.396       .  A
C2331      F2336   1.357       .  S
C2332      C2333   1.399       .  A
C2332      H2337   1.080   1_565  S
C2333      C2334   1.402       .  A
C2334      F2338   1.357       .  S
C2335      C2340   1.408       .  A
C2335      C2344   1.409       .  A
C2340      C2341   1.393       .  A
C2340      F2345   1.357       .  S
C2341      C2342   1.404       .  A
C2341      H2346   1.083       .  S
C2342      C2343   1.406       .  A
C2343      C2344   1.403       .  A
C2343      F2347   1.357       .  S
C2344      H2348   1.083       .  S
C2349      C2350   1.404       .  A
C2349      C2354   1.395       .  A
C2349      H2359   1.083       .  S
C2350      C2355   1.483       .  S
C2350      C2351   1.409       .  A
C2351      C2352   1.400       .  A
C2351      F2356   1.357       .  S
C2352      C2353   1.399       .  A
C2352      H2357   1.083       .  S
C2353      C2354   1.405       .  A
C2355      C2360   1.407       .  A
C2355      C2364   1.408       .  A
C2360      C2361   1.395       .  A
C2360      F2365   1.357       .  S
C2361      C2362   1.402       .  A
C2361      H2366   1.084       .  S
C2362      C2363   1.401       .  A
C2363      C2364   1.401       .  A
C2363      F2367   1.356       .  S
C2364      H2368   1.083       .  S
