geometry optimzed in LAMMPS
_audit_creation_date              2020-12-01 
_audit_creation_method            'lammps2cif' 
_symmetry_space_group_name_H-M    'P1' 
_symmetry_Int_Tables_number       1 
_symmetry_cell_setting            triclinic 
loop_ 
_symmetry_equiv_pos_as_xyz 
  x,y,z 
_cell_length_a                    30.74257758 
_cell_length_b                    30.781764210845846 
_cell_length_c                    114.6083334256119 
_cell_angle_alpha                 90.28005640422406 
_cell_angle_beta                  89.72233070436015 
_cell_angle_gamma                 124.0664062498072 
loop_ 
_atom_site_label 
_atom_site_type_symbol 
_atom_site_fract_x 
_atom_site_fract_y 
_atom_site_fract_z 
_atom_site_charge 
C1          C  0.40273588  0.60886452  0.65651040     0.79900
N2          N  0.36007589  0.59051492  0.66343752    -0.78400
C3          C  0.34722446  0.55387614  0.67168730     0.82300
N4          N  0.37720243  0.53443189  0.67294339    -0.78400
C5          C  0.41949539  0.55140987  0.66583061     0.82400
N6          N  0.43255961  0.58904428  0.65766760    -0.80100
C7          C  0.45890430  0.45889914  0.66097468     0.79900
N8          N  0.49359949  0.47290300  0.66978747    -0.78400
C9          C  0.50703691  0.51383599  0.67689088     0.82300
N10         N  0.48441719  0.54079078  0.67534890    -0.78400
C11         C  0.44878578  0.52669716  0.66663219     0.82400
N12         N  0.43643562  0.48600442  0.65937615    -0.80100
N13         N  0.01966509  0.54099930  0.73455362    -0.27600
N14         N  0.00220385  0.54925494  0.72486425    -0.35500
C15         C  0.02787294  0.54611272  0.71570548     0.00700
C16         C  0.06330116  0.53525494  0.71977925     0.06700
C17         C  0.05675629  0.53221611  0.73180553    -0.06400
H18         H  0.02106128  0.55141137  0.70673530     0.07400
H19         H  0.07808787  0.52525563  0.73815199     0.08600
Cu20       Cu  0.94426719  0.56466604  0.72446302     0.44200
Cu21       Cu  0.99385268  0.54422551  0.75113093     0.42000
Cu22       Cu  0.89613716  0.57519028  0.75247107     0.43900
N23         N  0.88230184  0.57370643  0.72639496    -0.35000
N24         N  0.86424483  0.57656094  0.73666311    -0.29300
C25         C  0.82197542  0.57836150  0.73503965    -0.05400
C26         C  0.81302653  0.57695933  0.72316445     0.06800
C27         C  0.85226396  0.57424400  0.71795386     0.00600
H28         H  0.79896304  0.57974453  0.74202083     0.08300
H29         H  0.85728816  0.57065167  0.70872804     0.07400
N30         N  0.93152274  0.56833207  0.76707958    -0.36500
N31         N  0.96646845  0.55616984  0.76661823    -0.28600
C32         C  0.98083474  0.55390053  0.77754961    -0.03900
C33         C  0.95380313  0.56539649  0.78530757     0.04700
C34         C  0.92294037  0.57437988  0.77830311     0.02800
H35         H  0.00929060  0.54498436  0.77964535     0.07900
H36         H  0.89561317  0.58393529  0.78111765     0.06800
N37         N  0.44080945  0.12843886  0.59701008    -0.27600
N38         N  0.44904868  0.11135401  0.60676274    -0.35500
C39         C  0.45052437  0.14052408  0.61572616     0.00700
C40         C  0.44251356  0.17761853  0.61144889     0.06700
C41         C  0.43635195  0.16859116  0.59952383    -0.06400
H42         H  0.45662279  0.13481346  0.62472407     0.07400
H43         H  0.43018148  0.19024545  0.59310297     0.08600
Cu44       Cu  0.45750425  0.04870434  0.60751364     0.44200
Cu45       Cu  0.43822201  0.09757057  0.58071175     0.42000
Cu46       Cu  0.45992049  0.99294137  0.57993259     0.43900
N47         N  0.46080518  0.98300215  0.60603715    -0.35000
N48         N  0.46091327  0.96238066  0.59590125    -0.29300
C49         C  0.46073623  0.91920973  0.59779811    -0.05400
C50         C  0.46097382  0.91232999  0.60972466     0.06800
C51         C  0.46111428  0.95364409  0.61467374     0.00600
H52         H  0.46027720  0.89456618  0.59096815     0.08300
H53         H  0.46002666  0.96102255  0.62387407     0.07400
N54         N  0.45361862  0.02765702  0.56520000    -0.36500
N55         N  0.44459468  0.06488736  0.56548798    -0.28600
C56         C  0.44142522  0.07791085  0.55450192    -0.03900
C57         C  0.44912058  0.04763788  0.54691197     0.04700
C58         C  0.45682505  0.01627055  0.55402311     0.02800
H59         H  0.43464703  0.10772941  0.55224591     0.07900
H60         H  0.46350173  0.98674742  0.55131304     0.06800
C61         C  0.47943740  0.18899264  0.00938762     0.79900
N62         N  0.45283011  0.13598530  0.01056071    -0.78400
C63         C  0.46383230  0.10812950  0.00327290     0.82300
N64         N  0.50137226  0.13332885  0.99488531    -0.78400
C65         C  0.52873372  0.18631711  0.99385989     0.82400
N66         N  0.51705700  0.21344719  0.00106915    -0.80100
C67         C  0.41091260  0.97118225  0.01196272     0.79900
N68         N  0.37349880  0.94460809  0.00370737    -0.78400
C69         C  0.36522010  0.97002317  0.99529539     0.82300
N70         N  0.39485831  0.02331520  0.99525147    -0.78400
C71         C  0.43198705  0.05065319  0.00360094     0.82400
N72         N  0.44047667  0.02459873  0.01189300    -0.80100
N73         N  0.04331239  0.67203515  0.92303617    -0.27600
N74         N  0.01980949  0.64570384  0.93265479    -0.35500
C75         C  0.04530087  0.67570602  0.94196045     0.00700
C76         C  0.08740003  0.72386554  0.93812529     0.06700
C77         C  0.08508513  0.72003743  0.92600907    -0.06400
H78         H  0.03417476  0.66263327  0.95087349     0.07400
H79         H  0.11161694  0.74975373  0.91982248     0.08600
Cu80       Cu  0.95497978  0.56972694  0.93289542     0.44200
Cu81       Cu  0.01497049  0.63796974  0.90670523     0.42000
Cu82       Cu  0.90005051  0.49723964  0.90664029     0.43900
N83         N  0.89057129  0.49353465  0.93259380    -0.35000
N84         N  0.86912025  0.46570329  0.92300916    -0.29300
C85         C  0.82676759  0.41815090  0.92600568    -0.05400
C86         C  0.82187381  0.41623326  0.93810064     0.06800
C87         C  0.86312746  0.46496813  0.94189430     0.00600
H88         H  0.80136163  0.38759137  0.91984057     0.08300
H89         H  0.87220485  0.47953901  0.95075730     0.07400
N90         N  0.93841896  0.54220425  0.89188026    -0.36500
N91         N  0.97826503  0.59219191  0.89191836    -0.28600
C92         C  0.99171898  0.60858511  0.88082767    -0.03900
C93         C  0.95927850  0.56705455  0.87343171     0.04700
C94         C  0.92606931  0.52560752  0.88075798     0.02800
H95         H  0.02331540  0.64785155  0.87835598     0.07900
H96         H  0.89456763  0.48638254  0.87821416     0.06800
N97         N  0.44367968  0.66908548  0.07412925    -0.27600
N98         N  0.45041810  0.65306459  0.06397370    -0.35500
C99         C  0.45437209  0.68540663  0.05554040     0.00700
C100        C  0.44940571  0.72347712  0.06058537     0.06700
C101        C  0.44251045  0.71169235  0.07240036    -0.06400
H102        H  0.45905912  0.68063223  0.04636260     0.07400
H103        H  0.43719643  0.73260313  0.07925471     0.08600
Cu104      Cu  0.45100325  0.58608672  0.06199433     0.44200
Cu105      Cu  0.43644752  0.63178801  0.08983953     0.42000
Cu106      Cu  0.42893003  0.50985893  0.08823840     0.43900
N107        N  0.44354333  0.51450487  0.06205699    -0.35000
N108        N  0.43450747  0.48636979  0.07155791    -0.29300
C109        C  0.43102820  0.44215097  0.06858966    -0.05400
C110        C  0.43859015  0.44249130  0.05665236     0.06800
C111        C  0.44648215  0.48907850  0.05281680     0.00600
H112        H  0.42458622  0.41249565  0.07472557     0.08300
H113        H  0.45360393  0.50342480  0.04394569     0.07400
N114        N  0.42843592  0.54438220  0.10385118    -0.36500
N115        N  0.43202804  0.58921896  0.10439761    -0.28600
C116        C  0.43281130  0.60206461  0.11566845    -0.03900
C117        C  0.42912415  0.56332837  0.12258713     0.04700
C118        C  0.42625992  0.52727378  0.11477582     0.02800
H119        H  0.43579753  0.63709382  0.11860142     0.07900
H120        H  0.42405310  0.49184932  0.11686897     0.06800
C121        C  0.82112371  0.50637980  0.32107918     0.79900
N122        N  0.87466239  0.53539215  0.32126214    -0.78400
C123        C  0.90010186  0.52386564  0.32908117     0.82300
N124        N  0.87206929  0.48422945  0.33686823    -0.78400
C125        C  0.81880399  0.45467946  0.33658723     0.82400
N126        N  0.79401591  0.46616925  0.32870923    -0.80100
C127        C  0.04093901  0.57624526  0.32479584     0.79900
N128        N  0.98835603  0.55016334  0.32273629    -0.78400
C129        C  0.95747274  0.55688945  0.33008171     0.82300
N130        N  0.97920593  0.58974525  0.33939096    -0.78400
C131        C  0.03151335  0.61601456  0.34142681     0.82400
N132        N  0.06180455  0.60864551  0.33418039    -0.80100
N133        N  0.35846363  0.56682010  0.26094273    -0.27600
N134        N  0.38646840  0.57839576  0.27057044    -0.35500
C135        C  0.35953474  0.58074104  0.27956457     0.00700
C136        C  0.31192808  0.56963342  0.27545810     0.06700
C137        C  0.31262513  0.56084619  0.26359388    -0.06400
H138        H  0.37332024  0.58913057  0.28848496     0.07400
H139        H  0.28246231  0.55168832  0.25730920     0.08600
Cu140      Cu  0.45929660  0.58843340  0.27106769     0.44200
Cu141      Cu  0.38538198  0.56132642  0.24464064     0.42000
Cu142      Cu  0.51074370  0.57437541  0.24371537     0.43900
N143        N  0.52594833  0.58677397  0.26979752    -0.35000
N144        N  0.54443557  0.58114267  0.25988357    -0.29300
C145        C  0.58601983  0.57886225  0.26218425    -0.05400
C146        C  0.59430520  0.58317798  0.27416153     0.06800
C147        C  0.55528680  0.58825539  0.27865387     0.00600
H148        H  0.60760429  0.57308042  0.25559662     0.08300
H149        H  0.54766705  0.59155954  0.28772188     0.07400
N150        N  0.46830740  0.56752040  0.22893519    -0.36500
N151        N  0.42263347  0.56236900  0.22929892    -0.28600
C152        C  0.40567587  0.55906616  0.21832329    -0.03900
C153        C  0.44239656  0.56240391  0.21062021     0.04700
C154        C  0.48163541  0.56780187  0.21771152     0.02800
H155        H  0.36950629  0.55527122  0.21614671     0.07900
H156        H  0.51725629  0.57148987  0.21495579     0.06800
N157        N  0.31917473  0.95198253  0.41106315    -0.27600
N158        N  0.33886959  0.97713165  0.40111114    -0.35500
C159        C  0.30542527  0.94880368  0.39242999     0.00700
C160        C  0.26258368  0.90332421  0.39712052     0.06700
C161        C  0.27276442  0.90662135  0.40897654    -0.06400
H162        H  0.31276800  0.95970530  0.38331718     0.07400
H163        H  0.24858432  0.87800235  0.41558930     0.08600
Cu164      Cu  0.41206479  0.04682370  0.39972391     0.44200
Cu165      Cu  0.35819217  0.98072245  0.42678710     0.42000
Cu166      Cu  0.49581583  0.09392602  0.42500716     0.43900
N167        N  0.48914126  0.11126214  0.39955323    -0.35000
N168        N  0.52089786  0.12798857  0.40865035    -0.29300
C169        C  0.56840016  0.16980055  0.40543166    -0.05400
C170        C  0.56590464  0.18001238  0.39377951     0.06800
C171        C  0.51511616  0.14213342  0.39037397     0.00600
H172        H  0.60168963  0.19188244  0.41120702     0.08300
H173        H  0.49827003  0.13709381  0.38180419     0.07400
N174        N  0.45638860  0.05780898  0.44040902    -0.36500
N175        N  0.40667971  0.01773755  0.44103512    -0.28600
C176        C  0.39310311  0.00572232  0.45230068    -0.03900
C177        C  0.43632131  0.03969933  0.45913118     0.04700
C178        C  0.47575855  0.07209187  0.45127414     0.02800
H179        H  0.35447233  0.97446579  0.45525412     0.07900
H180        H  0.51533117  0.10456734  0.45327318     0.06800
C181        C  0.06508392  0.72156912  0.36372847    -0.11200
C182        C  0.11005076  0.72885454  0.36890359     0.06000
C183        C  0.12654888  0.69634390  0.36559603    -0.09900
C184        C  0.10008066  0.65879069  0.35684868    -0.11600
C185        C  0.05589124  0.65224161  0.35142877    -0.01400
C186        C  0.03767000  0.68291795  0.35516149    -0.10500
C187        C  0.14302448  0.77322159  0.37690250     0.06000
H188        H  0.16140270  0.70167040  0.36941636     0.07900
H189        H  0.11470683  0.63540540  0.35417515     0.11400
H190        H  0.00377383  0.67867058  0.35108252     0.11600
H191        H  0.05190091  0.74645052  0.36616065     0.07900
C192        C  0.16549038  0.82474648  0.37302457    -0.11200
C193        C  0.20338571  0.86715668  0.37976008    -0.10500
C194        C  0.21871850  0.85876983  0.39058932    -0.01400
C195        C  0.19411327  0.80722066  0.39473744    -0.11600
C196        C  0.15701525  0.76474083  0.38787730    -0.10000
H197        H  0.15557419  0.83205039  0.36452765     0.07900
H198        H  0.22138666  0.90648320  0.37639704     0.11600
H199        H  0.20533978  0.79956562  0.40301878     0.11400
H200        H  0.14023226  0.72519706  0.39098190     0.07900
C201        C  0.15761726  0.57388485  0.31528769    -0.11200
C202        C  0.14972980  0.56448670  0.30320736     0.06000
C203        C  0.10305893  0.55519080  0.29836814    -0.09900
C204        C  0.06639839  0.55701799  0.30537674    -0.11600
C205        C  0.07604568  0.56897950  0.31732206    -0.01400
C206        C  0.12174967  0.57670547  0.32218336    -0.10500
C207        C  0.19095985  0.56598026  0.29581484     0.06000
H208        H  0.09551527  0.54813302  0.28910903     0.07900
H209        H  0.03156876  0.55101360  0.30138166     0.11400
H210        H  0.12996185  0.58506849  0.33140303     0.11600
H211        H  0.19176583  0.57929594  0.31949484     0.07900
C212        C  0.24445568  0.59951758  0.29880597    -0.11200
C213        C  0.28330144  0.60024605  0.29224590    -0.10500
C214        C  0.27013267  0.56847530  0.28231077    -0.01400
C215        C  0.21702849  0.53582363  0.27907427    -0.11600
C216        C  0.17783011  0.53422330  0.28580058    -0.10000
H217        H  0.25672611  0.62593072  0.30618245     0.07900
H218        H  0.32391098  0.62651787  0.29485235     0.11600
H219        H  0.20566462  0.51062552  0.27148644     0.11400
H220        H  0.13724950  0.50742676  0.28325092     0.07900
C221        C  0.77257060  0.37480759  0.36454679    -0.11200
C222        C  0.71988865  0.33598797  0.36178644     0.06000
C223        C  0.70236826  0.33397916  0.35036234    -0.09900
C224        C  0.73524995  0.37162875  0.34215740    -0.11600
C225        C  0.78701583  0.41185259  0.34503880    -0.01400
C226        C  0.80596184  0.41230895  0.35621184    -0.10500
C227        C  0.68210603  0.29877887  0.37073121     0.06000
H228        H  0.66272694  0.30359619  0.34776893     0.07900
H229        H  0.71977533  0.36964188  0.33355474     0.11400
H230        H  0.84574118  0.44294361  0.35866626     0.11600
H231        H  0.78738620  0.37751252  0.37325534     0.07900
C232        C  0.69709319  0.27721887  0.37936236    -0.11200
C233        C  0.65979805  0.23982397  0.38721895    -0.10500
C234        C  0.60694022  0.22292893  0.38643115    -0.01400
C235        C  0.59246489  0.24573688  0.37810745    -0.11600
C236        C  0.62960390  0.28357720  0.37046347    -0.10000
H237        H  0.73713713  0.28796883  0.37981452     0.07900
H238        H  0.67178823  0.22264942  0.39358756     0.11600
H239        H  0.55217074  0.23419662  0.37749188     0.11400
H240        H  0.61692270  0.30067743  0.36425366     0.07900
C241        C  0.70724445  0.50340864  0.30756412    -0.11200
C242        C  0.73244749  0.54626495  0.29994052     0.06000
C243        C  0.78741543  0.57507802  0.29882758    -0.09900
C244        C  0.81671643  0.56206853  0.30552998    -0.11600
C245        C  0.79137050  0.51955401  0.31333120    -0.01400
C246        C  0.73617798  0.49008443  0.31411372    -0.10500
C247        C  0.70066701  0.56048360  0.29337240     0.06000
H248        H  0.80771840  0.60837083  0.29299308     0.07900
H249        H  0.85906906  0.58560086  0.30471153     0.11400
H250        H  0.71496599  0.45688982  0.31994945     0.11600
H251        H  0.66488864  0.48006061  0.30845476     0.07900
C252        C  0.70606764  0.56781116  0.28124297    -0.11200
C253        C  0.67231318  0.57626174  0.27500941    -0.10500
C254        C  0.63277405  0.57802290  0.28079529    -0.01400
C255        C  0.62897225  0.57264513  0.29301010    -0.11600
C256        C  0.66230926  0.56374933  0.29919440    -0.10000
H257        H  0.73520790  0.56524662  0.27655081     0.07900
H258        H  0.67689505  0.58066960  0.26563798     0.11600
H259        H  0.59940209  0.57386817  0.29783770     0.11400
H260        H  0.65767981  0.55872774  0.30857118     0.07900
C261        C  0.46111705  0.60859775  0.15407474    -0.11200
C262        C  0.43426798  0.56083137  0.16011340     0.06000
C263        C  0.40539451  0.51371560  0.15378668    -0.09900
C264        C  0.40411998  0.51437457  0.14156938    -0.11600
C265        C  0.43054700  0.56224011  0.13550775    -0.01400
C266        C  0.45874389  0.60932305  0.14189493    -0.10500
C267        C  0.43628128  0.56035415  0.17300230     0.06000
H268        H  0.38440833  0.47646001  0.15830769     0.07900
H269        H  0.38186407  0.47753154  0.13687370     0.11400
H270        H  0.47979344  0.64676202  0.13745969     0.11600
H271        H  0.48345645  0.64534529  0.15881142     0.07900
C272        C  0.48428939  0.58123626  0.17875513    -0.11200
C273        C  0.48625749  0.58125566  0.19096237    -0.10500
C274        C  0.44033765  0.56130071  0.19765274    -0.01400
C275        C  0.39235447  0.54063925  0.19182414    -0.11600
C276        C  0.39031078  0.53977170  0.17962131    -0.10000
H277        H  0.52019596  0.59727440  0.17378102     0.07900
H278        H  0.52390426  0.59775611  0.19513875     0.11600
H279        H  0.35618927  0.52461154  0.19667176     0.11400
H280        H  0.35292331  0.52368350  0.17533151     0.07900
C281        C  0.15419942  0.80565020  0.96506899    -0.11200
C282        C  0.20460053  0.84373837  0.96091745     0.06000
C283        C  0.21508317  0.84562062  0.94891517    -0.09900
C284        C  0.17647261  0.80782033  0.94132330    -0.11600
C285        C  0.12686642  0.76782607  0.94564514    -0.01400
C286        C  0.11582288  0.76832519  0.95754249    -0.10500
C287        C  0.24672021  0.87741319  0.96939547     0.06000
H288        H  0.25379033  0.87462370  0.94552499     0.07900
H289        H  0.18620236  0.80868053  0.93220298     0.11400
H290        H  0.07774660  0.73922544  0.96116572     0.11600
H291        H  0.14490432  0.80393897  0.97425646     0.07900
C292        C  0.27978736  0.93213839  0.96812391    -0.11200
C293        C  0.31820333  0.96281937  0.97656404    -0.10500
C294        C  0.32449193  0.93903009  0.98629446    -0.01400
C295        C  0.29157108  0.88418822  0.98737723    -0.11600
C296        C  0.25325717  0.85391482  0.97906808    -0.10000
H297        H  0.27531982  0.95108593  0.96072970     0.07900
H298        H  0.34301340  0.00494425  0.97544851     0.11600
H299        H  0.29515029  0.86429803  0.99469791     0.11400
H300        H  0.22871859  0.81174466  0.98017122     0.07900
C301        C  0.41557072  0.82113615  0.05288344    -0.11200
C302        C  0.44182104  0.84096271  0.04218817     0.06000
C303        C  0.47233330  0.82362870  0.03781571    -0.09900
C304        C  0.47521359  0.78584926  0.04385173    -0.11600
C305        C  0.44852607  0.76549667  0.05450564    -0.01400
C306        C  0.41945556  0.78428244  0.05906381    -0.10500
C307        C  0.43435074  0.87668488  0.03519633     0.06000
H308        H  0.49253881  0.83808593  0.02953403     0.07900
H309        H  0.49820525  0.77243033  0.04015935     0.11400
H310        H  0.39821648  0.76916798  0.06720824     0.11600
H311        H  0.39166273  0.83386210  0.05638717     0.07900
C312        C  0.38375763  0.86017486  0.03160498    -0.11200
C313        C  0.37635580  0.89166994  0.02428739    -0.10500
C314        C  0.41926204  0.94098221  0.02062443    -0.01400
C315        C  0.46981337  0.95838152  0.02453143    -0.11600
C316        C  0.47738488  0.92611521  0.03163609    -0.10000
H317        H  0.35008282  0.82206590  0.03416906     0.07900
H318        H  0.33697920  0.87719518  0.02137978     0.11600
H319        H  0.50358630  0.99591466  0.02171932     0.11400
H320        H  0.51677010  0.93949544  0.03429729     0.07900
C321        C  0.61985280  0.21708113  0.96798541    -0.05500
C322        C  0.65260055  0.27203378  0.96863358     0.06000
C323        C  0.64355116  0.29818261  0.97735518    -0.09900
C324        C  0.60313023  0.27015922  0.98540484    -0.11600
C325        C  0.57079285  0.21506930  0.98500775    -0.01400
C326        C  0.57943486  0.18871713  0.97618134    -0.10500
C327        C  0.69723237  0.30309543  0.96053411     0.06000
H328        H  0.66793321  0.34059753  0.97793731     0.07900
H329        H  0.59771046  0.29191157  0.99203556     0.11400
H330        H  0.55506552  0.14633381  0.97561098     0.11600
H331        H  0.62627558  0.19619349  0.96131602     0.07900
C332        C  0.74671393  0.34115210  0.96508085    -0.11200
C333        C  0.78767703  0.37600166  0.95770506    -0.10500
C334        C  0.78007436  0.37408768  0.94557932    -0.01400
C335        C  0.73134893  0.33392313  0.94094222    -0.11600
C336        C  0.69019038  0.29853521  0.94838397    -0.10000
H337        H  0.75327066  0.34478536  0.97441755     0.07900
H338        H  0.82497102  0.40526445  0.96160318     0.11600
H339        H  0.72424896  0.33121239  0.93164607     0.11400
H340        H  0.65222254  0.26939736  0.94470285     0.07900
C341        C  0.46012431  0.29601025  0.01749628    -0.11200
C342        C  0.45171991  0.28969101  0.02962149     0.06000
C343        C  0.44890162  0.24693456  0.03497432    -0.09900
C344        C  0.45564655  0.21244612  0.02839535    -0.11600
C345        C  0.46639216  0.22071940  0.01640219    -0.01400
C346        C  0.46804484  0.26250357  0.01103408    -0.10500
C347        C  0.44743955  0.32850355  0.03655934     0.06000
H348        H  0.44310611  0.24093712  0.04429670     0.07900
H349        H  0.45460298  0.18071860  0.03274528     0.11400
H350        H  0.47559926  0.26936934  0.00175670     0.11600
H351        H  0.46081614  0.32706660  0.01292653     0.07900
C352        C  0.47537497  0.38154103  0.03314070    -0.11200
C353        C  0.47148282  0.41807845  0.03950836    -0.10500
C354        C  0.44060055  0.40300128  0.04964434    -0.01400
C355        C  0.41285275  0.35029407  0.05315721    -0.11600
C356        C  0.41585051  0.31337869  0.04664407    -0.10000
H357        H  0.50129578  0.39538343  0.02564591     0.07900
H358        H  0.49393597  0.45852887  0.03666751     0.11600
H359        H  0.38828227  0.33742298  0.06088011     0.11400
H360        H  0.39297662  0.27293502  0.04947069     0.07900
C361        C  0.39564915  0.02329455  0.49089083    -0.11200
C362        C  0.44416770  0.04693000  0.49657483     0.06000
C363        C  0.49018482  0.06841363  0.48990862    -0.09900
C364        C  0.48772273  0.06641190  0.47773123    -0.11600
C365        C  0.43909373  0.04219437  0.47201855    -0.01400
C366        C  0.39308161  0.02061062  0.47872847    -0.10500
C367        C  0.44652264  0.04834243  0.50944468     0.06000
H368        H  0.52805362  0.08705784  0.49413433     0.07900
H369        H  0.52382471  0.08316388  0.47281280     0.11400
H370        H  0.35506854  0.00214628  0.47460210     0.11600
H371        H  0.35964157  0.00620130  0.49587830     0.07900
C372        C  0.42048128  0.06607317  0.51591367    -0.11200
C373        C  0.42185020  0.06642566  0.52809276    -0.10500
C374        C  0.44862801  0.04828362  0.53401793    -0.01400
C375        C  0.47462875  0.03049111  0.52751874    -0.11600
C376        C  0.47392774  0.03091521  0.51533536    -0.10000
H377        H  0.39928197  0.07988507  0.51152881     0.07900
H378        H  0.40114312  0.08002186  0.53285332     0.11600
H379        H  0.49591984  0.01665832  0.53183386     0.11400
H380        H  0.49399740  0.01676014  0.51050126     0.07900
C381        C  0.97785504  0.54239208  0.81646386    -0.11200
C382        C  0.95933507  0.56779093  0.82292026     0.06000
C383        C  0.93977383  0.59308669  0.81693496    -0.09900
C384        C  0.93812749  0.59242196  0.80474271    -0.11600
C385        C  0.95647949  0.56687955  0.79825138    -0.01400
C386        C  0.97675652  0.54220713  0.80425889    -0.10500
C387        C  0.96000214  0.56766390  0.83586153     0.06000
H388        H  0.92494969  0.61267757  0.82170389     0.07900
H389        H  0.92267796  0.61221869  0.80042529     0.11400
H390        H  0.99100553  0.52197254  0.79956150     0.11600
H391        H  0.99354567  0.52296278  0.82086958     0.07900
C392        C  0.94175348  0.52103341  0.84200532    -0.11200
C393        C  0.94118272  0.52072780  0.85421287    -0.10500
C394        C  0.95968311  0.56721277  0.86051141    -0.01400
C395        C  0.97850513  0.61394002  0.85436020    -0.11600
C396        C  0.97827385  0.61407096  0.84216281    -0.10000
H397        H  0.92711491  0.48465136  0.83735614     0.07900
H398        H  0.92677897  0.48419827  0.85871547     0.11600
H399        H  0.99266499  0.65029185  0.85896908     0.11400
H400        H  0.99284657  0.65060635  0.83763774     0.07900
C401        C  0.46956914  0.27533704  0.63527141    -0.11200
C402        C  0.44010193  0.29515782  0.63169576     0.06000
C403        C  0.41265224  0.27698214  0.62105591    -0.09900
C404        C  0.41403642  0.23946569  0.61434475    -0.11600
C405        C  0.44217010  0.21870319  0.61820492    -0.01400
C406        C  0.47008235  0.23731090  0.62870658    -0.10500
C407        C  0.43855465  0.33443829  0.63913825     0.06000
H408        H  0.38924720  0.29085818  0.61801265     0.07900
H409        H  0.39200768  0.22576077  0.60628024     0.11400
H410        H  0.49309614  0.22303993  0.63179660     0.11600
H411        H  0.49293123  0.28951829  0.64314267     0.07900
C412        C  0.44263530  0.33326211  0.65134193    -0.11200
C413        C  0.44725724  0.37278368  0.65835000    -0.10500
C414        C  0.44647512  0.41403155  0.65345503    -0.01400
C415        C  0.43877714  0.41376811  0.64137691    -0.11600
C416        C  0.43526355  0.37453942  0.63426298    -0.10000
H417        H  0.44310731  0.30212880  0.65554027     0.07900
H418        H  0.45229700  0.37148525  0.66766569     0.11600
H419        H  0.43825479  0.44526774  0.63737923     0.11400
H420        H  0.43223027  0.37701610  0.62491820     0.07900
C421        C  0.63517766  0.59065226  0.69332607    -0.11200
C422        C  0.63302221  0.55069158  0.69977698     0.06000
C423        C  0.58648848  0.50015783  0.69964977    -0.09900
C424        C  0.54423653  0.48907343  0.69267998    -0.11600
C425        C  0.54711135  0.52851213  0.68591291    -0.01400
C426        C  0.59228668  0.57975742  0.68654039    -0.10500
C427        C  0.67994204  0.56046186  0.70604698     0.06000
H428        H  0.58379809  0.46854343  0.70446552     0.07900
H429        H  0.50988357  0.44914891  0.69223689     0.11400
H430        H  0.59560470  0.61055017  0.68125131     0.11600
H431        H  0.67048503  0.63000877  0.69333846     0.07900
C432        C  0.72914131  0.58639940  0.70046142    -0.11200
C433        C  0.77252870  0.59208221  0.70603131    -0.10500
C434        C  0.76781203  0.57285718  0.71738380    -0.01400
C435        C  0.71891229  0.54797877  0.72306007    -0.11600
C436        C  0.67532948  0.54136298  0.71740860    -0.10000
H437        H  0.73365154  0.60091483  0.69164705     0.07900
H438        H  0.80976447  0.61149810  0.70146290     0.11600
H439        H  0.71393059  0.53226613  0.73176116     0.11400
H440        H  0.63789682  0.52118632  0.72191008     0.07900
C441        C  0.47873492  0.73553062  0.63919033    -0.11200
C442        C  0.43753258  0.73696034  0.63439549     0.06000
C443        C  0.38559423  0.69452654  0.63625916    -0.09900
C444        C  0.37480774  0.65220184  0.64310459    -0.11600
C445        C  0.41573725  0.65077642  0.64806368    -0.01400
C446        C  0.46793145  0.69234810  0.64585962    -0.10500
C447        C  0.44773512  0.78293097  0.62774092     0.06000
H448        H  0.35323171  0.69494117  0.63270916     0.07900
H449        H  0.33419347  0.62079709  0.64469243     0.11400
H450        H  0.50012376  0.69250845  0.64970515     0.11600
H451        H  0.51911913  0.76794744  0.63783529     0.07900
C452        C  0.47452171  0.83289689  0.63291165    -0.11200
C453        C  0.47908491  0.87512843  0.62704780    -0.10500
C454        C  0.45795489  0.86832634  0.61581365    -0.01400
C455        C  0.43261988  0.81861943  0.61052471    -0.11600
C456        C  0.42701746  0.77622772  0.61648839    -0.10000
H457        H  0.49033397  0.83878656  0.64163578     0.07900
H458        H  0.49906549  0.91306721  0.63130055     0.11600
H459        H  0.41559523  0.81204410  0.60191949     0.11400
H460        H  0.40598427  0.73794419  0.61236961     0.07900
C461        C  0.16358435  0.50502760  0.71110098    -0.11200
C462        C  0.17659260  0.52468272  0.69964418     0.06000
C463        C  0.15130107  0.54708052  0.69490352    -0.09900
C464        C  0.11416647  0.54968798  0.70136138    -0.11600
C465        C  0.10157035  0.53060039  0.71283574    -0.01400
C466        C  0.12666157  0.50812115  0.71762355    -0.10500
C467        C  0.21743203  0.52378126  0.69270883     0.06000
H468        H  0.16111202  0.56403249  0.68625245     0.07900
H469        H  0.09637615  0.56794589  0.69741340     0.11400
H470        H  0.11760448  0.49255005  0.72640089     0.11600
H471        H  0.18164592  0.48695108  0.71501668     0.07900
C472        C  0.26262194  0.53166950  0.69804427    -0.11200
C473        C  0.30377010  0.53754112  0.69125836    -0.10500
C474        C  0.30068797  0.53638464  0.67904076    -0.01400
C475        C  0.25462658  0.52567517  0.67375038    -0.11600
C476        C  0.21323775  0.51868237  0.68048568    -0.10000
H477        H  0.26754752  0.53614873  0.70741279     0.07900
H478        H  0.33925424  0.54637891  0.69550877     0.11600
H479        H  0.25132230  0.52431869  0.66432594     0.11400
H480        H  0.17852271  0.51084036  0.67605273     0.07900
loop_ 
_geom_bond_atom_site_label_1 
_geom_bond_atom_site_label_2 
_geom_bond_distance 
_geom_bond_site_symmetry_2 
_ccdc_geom_bond_type 
C1            N2   1.354       .  A
C1            N6   1.363       .  A
C1          C445   1.481       .  S
N2            C3   1.353       .  A
C3            N4   1.360       .  A
C3          C474   1.475       .  S
N4            C5   1.364       .  A
C5            N6   1.365       .  A
C5           C11   1.472       .  S
C7            N8   1.355       .  A
C7           N12   1.362       .  A
C7          C414   1.482       .  S
N8            C9   1.353       .  A
C9           N10   1.361       .  A
C9          C425   1.475       .  S
N10          C11   1.364       .  A
C11          N12   1.366       .  A
N13          C17   1.347       .  A
N13          N14   1.322       .  A
N13         Cu21   2.079   1_455  S
N14          C15   1.346       .  A
N14         Cu20   2.085   1_455  S
C15          C16   1.389       .  A
C15          H18   1.081       .  S
C16         C465   1.489       .  S
C16          C17   1.388       .  A
C17          H19   1.081       .  S
Cu20         N23   2.084       .  S
Cu21         N31   2.079       .  S
Cu22         N24   2.076       .  S
Cu22         N30   2.076       .  S
N23          C27   1.347       .  A
N23          N24   1.322       .  A
N24          C25   1.345       .  A
C25          C26   1.386       .  A
C25          H28   1.082       .  S
C26         C434   1.483       .  S
C26          C27   1.387       .  A
C27          H29   1.082       .  S
N30          C34   1.345       .  A
N30          N31   1.322       .  A
N31          C32   1.345       .  A
C32          C33   1.388       .  A
C32          H35   1.082   1_655  S
C33         C385   1.485       .  S
C33          C34   1.387       .  A
C34          H36   1.081       .  S
N37          C41   1.347       .  A
N37          N38   1.322       .  A
N37         Cu45   2.073       .  S
N38          C39   1.345       .  A
N38         Cu44   2.087       .  S
C39          C40   1.388       .  A
C39          H42   1.082       .  S
C40         C405   1.485       .  S
C40          C41   1.386       .  A
C41          H43   1.081       .  S
Cu44         N47   2.087   1_545  S
Cu45         N55   2.072       .  S
Cu46         N48   2.070       .  S
Cu46         N54   2.070   1_565  S
N47          C51   1.347       .  A
N47          N48   1.322       .  A
N48          C49   1.345       .  A
C49          C50   1.385       .  A
C49          H52   1.082       .  S
C50         C454   1.483       .  S
C50          C51   1.388       .  A
C51          H53   1.082       .  S
N54          C58   1.344       .  A
N54          N55   1.322       .  A
N55          C56   1.344       .  A
C56          C57   1.385       .  A
C56          H59   1.082       .  S
C57         C374   1.478       .  S
C57          C58   1.385       .  A
C58          H60   1.082   1_545  S
C61          N62   1.362       .  A
C61          N66   1.354       .  A
C61         C345   1.479       .  S
N62          C63   1.365       .  A
C63          N64   1.361   1_554  A
C63          C71   1.466       .  S
N64          C65   1.359       .  A
C65          N66   1.355   1_556  A
C65         C325   1.483       .  S
C67          N68   1.355       .  A
C67          N72   1.362   1_565  A
C67         C314   1.481       .  S
N68          C69   1.356   1_554  A
C69          N70   1.359   1_565  A
C69         C294   1.486       .  S
N70          C71   1.361   1_556  A
C71          N72   1.363       .  A
N73          C77   1.350       .  A
N73          N74   1.319       .  A
N73         Cu81   2.082       .  S
N74          C75   1.339       .  A
N74         Cu80   2.054   1_455  S
C75          C76   1.385       .  A
C75          H78   1.081       .  S
C76         C285   1.485       .  S
C76          C77   1.392       .  A
C77          H79   1.081       .  S
Cu80         N83   2.054       .  S
Cu81         N91   2.084   1_455  S
Cu82         N84   2.081       .  S
Cu82         N90   2.084       .  S
N83          C87   1.338       .  A
N83          N84   1.319       .  A
N84          C85   1.350       .  A
C85          C86   1.392       .  A
C85          H88   1.082       .  S
C86         C334   1.484       .  S
C86          C87   1.384       .  A
C87          H89   1.081       .  S
N90          C94   1.346       .  A
N90          N91   1.325       .  A
N91          C92   1.345       .  A
C92          C93   1.384       .  A
C92          H95   1.082   1_655  S
C93         C394   1.481       .  S
C93          C94   1.385       .  A
C94          H96   1.082       .  S
N97         C101   1.348       .  A
N97          N98   1.322       .  A
N97        Cu105   2.083       .  S
N98          C99   1.346       .  A
N98        Cu104   2.083       .  S
C99         C100   1.387       .  A
C99         H102   1.081       .  S
C100        C305   1.486       .  S
C100        C101   1.388       .  A
C101        H103   1.082       .  S
Cu104       N107   2.084       .  S
Cu105       N115   2.083       .  S
Cu106       N108   2.081       .  S
Cu106       N114   2.081       .  S
N107        C111   1.346       .  A
N107        N108   1.323       .  A
N108        C109   1.346       .  A
C109        C110   1.386       .  A
C109        H112   1.081       .  S
C110        C354   1.483       .  S
C110        C111   1.387       .  A
C111        H113   1.082       .  S
N114        C118   1.347       .  A
N114        N115   1.323       .  A
N115        C116   1.345       .  A
C116        C117   1.386       .  A
C116        H119   1.082       .  S
C117        C265   1.483       .  S
C117        C118   1.387       .  A
C118        H120   1.082       .  S
C121        N122   1.364       .  A
C121        N126   1.356       .  A
C121        C245   1.489       .  S
N122        C123   1.364       .  A
C123        N124   1.361       .  A
C123        C129   1.466       .  S
N124        C125   1.357       .  A
C125        N126   1.354       .  A
C125        C225   1.480       .  S
C127        N128   1.364   1_455  A
C127        N132   1.357       .  A
C127        C205   1.486       .  S
N128        C129   1.365       .  A
C129        N130   1.359       .  A
N130        C131   1.356   1_655  A
C131        N132   1.355       .  A
C131        C185   1.476       .  S
N133        C137   1.348       .  A
N133        N134   1.322       .  A
N133       Cu141   2.084       .  S
N134        C135   1.346       .  A
N134       Cu140   2.083       .  S
C135        C136   1.387       .  A
C135        H138   1.082       .  S
C136        C214   1.486       .  S
C136        C137   1.387       .  A
C137        H139   1.082       .  S
Cu140       N143   2.082       .  S
Cu141       N151   2.084       .  S
Cu142       N144   2.079       .  S
Cu142       N150   2.080       .  S
N143        C147   1.345       .  A
N143        N144   1.321       .  A
N144        C145   1.346       .  A
C145        C146   1.389       .  A
C145        H148   1.081       .  S
C146        C254   1.491       .  S
C146        C147   1.390       .  A
C147        H149   1.081       .  S
N150        C154   1.347       .  A
N150        N151   1.322       .  A
N151        C152   1.345       .  A
C152        C153   1.388       .  A
C152        H155   1.081       .  S
C153        C274   1.487       .  S
C153        C154   1.388       .  A
C154        H156   1.081       .  S
N157        C161   1.346       .  A
N157        N158   1.320       .  A
N157       Cu165   2.070       .  S
N158        C159   1.343       .  A
N158       Cu164   2.069   1_565  S
C159        C160   1.385       .  A
C159        H162   1.082       .  S
C160        C194   1.479       .  S
C160        C161   1.386       .  A
C161        H163   1.082       .  S
Cu164       N167   2.070       .  S
Cu165       N175   2.071   1_565  S
Cu166       N168   2.075       .  S
Cu166       N174   2.076       .  S
N167        C171   1.341       .  A
N167        N168   1.322       .  A
N168        C169   1.349       .  A
C169        C170   1.386       .  A
C169        H172   1.082       .  S
C170        C234   1.476       .  S
C170        C171   1.383       .  A
C171        H173   1.082       .  S
N174        C178   1.344       .  A
N174        N175   1.323       .  A
N175        C176   1.343       .  A
C176        C177   1.385       .  A
C176        H179   1.082   1_545  S
C177        C365   1.479       .  S
C177        C178   1.385       .  A
C178        H180   1.082       .  S
C181        C182   1.404       .  A
C181        C186   1.401       .  A
C181        H191   1.083       .  S
C182        C187   1.476       .  S
C182        C183   1.402       .  A
C183        C184   1.395       .  A
C183        H188   1.083       .  S
C184        C185   1.404       .  A
C184        H189   1.083       .  S
C185        C186   1.405       .  A
C186        H190   1.083       .  S
C187        C192   1.402       .  A
C187        C196   1.403       .  A
C192        C193   1.397       .  A
C192        H197   1.083       .  S
C193        C194   1.405       .  A
C193        H198   1.083       .  S
C194        C195   1.405       .  A
C195        C196   1.399       .  A
C195        H199   1.083       .  S
C196        H200   1.083       .  S
C201        C202   1.407       .  A
C201        C206   1.395       .  A
C201        H211   1.082       .  S
C202        C207   1.500       .  S
C202        C203   1.412       .  A
C203        C204   1.407       .  A
C203        H208   1.082       .  S
C204        C205   1.405       .  A
C204        H209   1.083       .  S
C205        C206   1.405       .  A
C206        H210   1.083       .  S
C207        C212   1.410       .  A
C207        C216   1.410       .  A
C212        C213   1.398       .  A
C212        H217   1.082       .  S
C213        C214   1.402       .  A
C213        H218   1.083       .  S
C214        C215   1.406       .  A
C215        C216   1.405       .  A
C215        H219   1.083       .  S
C216        H220   1.082       .  S
C221        C222   1.409       .  A
C221        C226   1.404       .  A
C221        H231   1.082       .  S
C222        C227   1.490       .  S
C222        C223   1.406       .  A
C223        C224   1.392       .  A
C223        H228   1.083       .  S
C224        C225   1.403       .  A
C224        H229   1.083       .  S
C225        C226   1.406       .  A
C226        H230   1.083       .  S
C227        C232   1.409       .  A
C227        C236   1.407       .  A
C232        C233   1.404       .  A
C232        H237   1.082       .  S
C233        C234   1.405       .  A
C233        H238   1.083       .  S
C234        C235   1.401       .  A
C235        C236   1.392       .  A
C235        H239   1.083       .  S
C236        H240   1.083       .  S
C241        C242   1.401       .  A
C241        C246   1.393       .  A
C241        H251   1.083       .  S
C242        C247   1.484       .  S
C242        C243   1.407       .  A
C243        C244   1.406       .  A
C243        H248   1.083       .  S
C244        C245   1.408       .  A
C244        H249   1.082       .  S
C245        C246   1.409       .  A
C246        H250   1.083       .  S
C247        C252   1.403       .  A
C247        C256   1.404       .  A
C252        C253   1.402       .  A
C252        H257   1.083       .  S
C253        C254   1.409       .  A
C253        H258   1.082       .  S
C254        C255   1.407       .  A
C255        C256   1.397       .  A
C255        H259   1.080       .  S
C256        H260   1.084       .  S
C261        C262   1.402       .  A
C261        C266   1.399       .  A
C261        H271   1.083       .  S
C262        C267   1.479       .  S
C262        C263   1.404       .  A
C263        C264   1.402       .  A
C263        H268   1.083       .  S
C264        C265   1.406       .  A
C264        H269   1.083       .  S
C265        C266   1.406       .  A
C266        H270   1.083       .  S
C267        C272   1.403       .  A
C267        C276   1.402       .  A
C272        C273   1.401       .  A
C272        H277   1.083       .  S
C273        C274   1.407       .  A
C273        H278   1.082       .  S
C274        C275   1.408       .  A
C275        C276   1.400       .  A
C275        H279   1.082       .  S
C276        H280   1.083       .  S
C281        C282   1.402       .  A
C281        C286   1.392       .  A
C281        H291   1.083       .  S
C282        C287   1.481       .  S
C282        C283   1.405       .  A
C283        C284   1.405       .  A
C283        H288   1.083       .  S
C284        C285   1.408       .  A
C284        H289   1.082       .  S
C285        C286   1.406       .  A
C286        H290   1.081       .  S
C287        C292   1.405       .  A
C287        C296   1.402       .  A
C292        C293   1.405       .  A
C292        H297   1.083       .  S
C293        C294   1.409       .  A
C293        H298   1.083   1_565  S
C294        C295   1.406       .  A
C295        C296   1.391       .  A
C295        H299   1.083       .  S
C296        H300   1.083       .  S
C301        C302   1.404       .  A
C301        C306   1.401       .  A
C301        H311   1.083       .  S
C302        C307   1.482       .  S
C302        C303   1.403       .  A
C303        C304   1.401       .  A
C303        H308   1.083       .  S
C304        C305   1.407       .  A
C304        H309   1.082       .  S
C305        C306   1.406       .  A
C306        H310   1.083       .  S
C307        C312   1.402       .  A
C307        C316   1.406       .  A
C312        C313   1.397       .  A
C312        H317   1.084       .  S
C313        C314   1.406       .  A
C313        H318   1.083       .  S
C314        C315   1.405       .  A
C315        C316   1.404       .  A
C315        H319   1.083       .  S
C316        H320   1.083       .  S
C321        C322   1.404       .  A
C321        C326   1.404       .  A
C321        H331   1.083       .  S
C322        C327   1.478       .  S
C322        C323   1.402       .  A
C323        C324   1.391       .  A
C323        H328   1.084       .  S
C324        C325   1.406       .  A
C324        H329   1.083       .  S
C325        C326   1.408       .  A
C326        H330   1.083       .  S
C327        C332   1.401       .  A
C327        C336   1.404       .  A
C332        C333   1.392       .  A
C332        H337   1.083       .  S
C333        C334   1.406       .  A
C333        H338   1.081       .  S
C334        C335   1.408       .  A
C335        C336   1.403       .  A
C335        H339   1.082       .  S
C336        H340   1.083       .  S
C341        C342   1.407       .  A
C341        C346   1.394       .  A
C341        H351   1.082       .  S
C342        C347   1.498       .  S
C342        C343   1.413       .  A
C343        C344   1.406       .  A
C343        H348   1.082       .  S
C344        C345   1.403       .  A
C344        H349   1.083       .  S
C345        C346   1.403       .  A
C346        H350   1.083       .  S
C347        C352   1.410       .  A
C347        C356   1.408       .  A
C352        C353   1.398       .  A
C352        H357   1.082       .  S
C353        C354   1.403       .  A
C353        H358   1.082       .  S
C354        C355   1.405       .  A
C355        C356   1.402       .  A
C355        H359   1.083       .  S
C356        H360   1.082       .  S
C361        C362   1.403       .  A
C361        C366   1.396       .  A
C361        H371   1.083       .  S
C362        C367   1.476       .  S
C362        C363   1.403       .  A
C363        C364   1.397       .  A
C363        H368   1.083       .  S
C364        C365   1.406       .  A
C364        H369   1.082       .  S
C365        C366   1.405       .  A
C366        H370   1.082       .  S
C367        C372   1.403       .  A
C367        C376   1.403       .  A
C372        C373   1.396       .  A
C372        H377   1.083       .  S
C373        C374   1.405       .  A
C373        H378   1.082       .  S
C374        C375   1.405       .  A
C375        C376   1.397       .  A
C375        H379   1.082       .  S
C376        H380   1.083       .  S
C381        C382   1.404       .  A
C381        C386   1.399       .  A
C381        H391   1.083       .  S
C382        C387   1.483       .  S
C382        C383   1.404       .  A
C383        C384   1.398       .  A
C383        H388   1.083       .  S
C384        C385   1.406       .  A
C384        H389   1.082       .  S
C385        C386   1.407       .  A
C386        H390   1.082       .  S
C387        C392   1.405       .  A
C387        C396   1.404       .  A
C392        C393   1.399       .  A
C392        H397   1.083       .  S
C393        C394   1.405       .  A
C393        H398   1.083       .  S
C394        C395   1.405       .  A
C395        C396   1.398       .  A
C395        H399   1.082       .  S
C396        H400   1.083       .  S
C401        C402   1.409       .  A
C401        C406   1.396       .  A
C401        H411   1.082       .  S
C402        C407   1.499       .  S
C402        C403   1.409       .  A
C403        C404   1.405       .  A
C403        H408   1.082       .  S
C404        C405   1.406       .  A
C404        H409   1.083       .  S
C405        C406   1.402       .  A
C406        H410   1.082       .  S
C407        C412   1.407       .  A
C407        C416   1.412       .  A
C412        C413   1.394       .  A
C412        H417   1.082       .  S
C413        C414   1.403       .  A
C413        H418   1.084       .  S
C414        C415   1.405       .  A
C415        C416   1.407       .  A
C415        H419   1.083       .  S
C416        H420   1.082       .  S
C421        C422   1.408       .  A
C421        C426   1.403       .  A
C421        H431   1.083       .  S
C422        C427   1.486       .  S
C422        C423   1.405       .  A
C423        C424   1.397       .  A
C423        H428   1.083       .  S
C424        C425   1.404       .  A
C424        H429   1.084       .  S
C425        C426   1.403       .  A
C426        H430   1.083       .  S
C427        C432   1.406       .  A
C427        C436   1.405       .  A
C432        C433   1.401       .  A
C432        H437   1.083       .  S
C433        C434   1.405       .  A
C433        H438   1.083       .  S
C434        C435   1.405       .  A
C435        C436   1.399       .  A
C435        H439   1.083       .  S
C436        H440   1.083       .  S
C441        C442   1.406       .  A
C441        C446   1.405       .  A
C441        H451   1.083       .  S
C442        C447   1.481       .  S
C442        C443   1.401       .  A
C443        C444   1.395       .  A
C443        H448   1.083       .  S
C444        C445   1.406       .  A
C444        H449   1.083       .  S
C445        C446   1.405       .  A
C446        H450   1.083       .  S
C447        C452   1.404       .  A
C447        C456   1.403       .  A
C452        C453   1.402       .  A
C452        H457   1.083       .  S
C453        C454   1.406       .  A
C453        H458   1.083       .  S
C454        C455   1.406       .  A
C455        C456   1.398       .  A
C455        H459   1.083       .  S
C456        H460   1.083       .  S
C461        C462   1.408       .  A
C461        C466   1.403       .  A
C461        H471   1.082       .  S
C462        C467   1.496       .  S
C462        C463   1.408       .  A
C463        C464   1.397       .  A
C463        H468   1.083       .  S
C464        C465   1.404       .  A
C464        H469   1.081       .  S
C465        C466   1.407       .  A
C466        H470   1.082       .  S
C467        C472   1.411       .  A
C467        C476   1.407       .  A
C472        C473   1.405       .  A
C472        H477   1.082       .  S
C473        C474   1.403       .  A
C473        H478   1.083       .  S
C474        C475   1.402       .  A
C475        C476   1.395       .  A
C475        H479   1.084       .  S
C476        H480   1.082       .  S
