geometry optimzed in LAMMPS
_audit_creation_date              2020-11-30 
_audit_creation_method            'lammps2cif' 
_symmetry_space_group_name_H-M    'P1' 
_symmetry_Int_Tables_number       1 
_symmetry_cell_setting            triclinic 
loop_ 
_symmetry_equiv_pos_as_xyz 
  x,y,z 
_cell_length_a                    48.51748703 
_cell_length_b                    48.66647140069166 
_cell_length_c                    37.63822628421572 
_cell_angle_alpha                 89.45967764055617 
_cell_angle_beta                  90.49905812004175 
_cell_angle_gamma                 119.956088438708 
loop_ 
_atom_site_label 
_atom_site_type_symbol 
_atom_site_fract_x 
_atom_site_fract_y 
_atom_site_fract_z 
_atom_site_charge 
O1          O  0.24933900  0.29901110  0.22410747    -0.84100
O2          O  0.23948010  0.32519253  0.16260421    -0.81100
C3          C  0.23123859  0.32821845  0.13148996     0.99400
O4          O  0.21710694  0.30426077  0.11126293    -0.81200
O5          O  0.25977951  0.28424954  0.09566405    -0.83800
C6          C  0.28214525  0.27945273  0.10464331     1.03900
O7          O  0.28089877  0.26446356  0.13284661    -0.76600
O8          O  0.28477441  0.29468608  0.19422137    -0.76800
C9          C  0.27808703  0.30870188  0.21743902     1.03900
O10         O  0.18863484  0.24515155  0.21504388    -0.84100
O11         O  0.17559561  0.27570944  0.16131557    -0.81100
C12         C  0.15783841  0.25237752  0.14202152     0.99400
O13         O  0.16936759  0.23798712  0.12588536    -0.81200
O14         O  0.21212680  0.21954427  0.10649272    -0.83800
C15         C  0.21439889  0.20035696  0.12753378     1.03900
O16         O  0.22559937  0.20838681  0.15837565    -0.76600
O17         O  0.22810268  0.23528402  0.22201782    -0.76700
C18         C  0.20012399  0.22957536  0.22966085     1.03800
Cr19       Cr  0.21441978  0.28478703  0.18843690     1.93700
Cr20       Cr  0.21555574  0.26176755  0.11356727     1.93200
Cr21       Cr  0.25290633  0.25194470  0.17579055     1.39100
O22         O  0.22762850  0.26571567  0.15896359    -1.21800
O23         O  0.17874788  0.43700097  0.21797398    -0.84100
O24         O  0.17436002  0.39539518  0.16709254    -0.81100
C25         C  0.15869022  0.39875963  0.14208267     0.99400
O26         O  0.17109840  0.42344673  0.12307401    -0.81200
O27         O  0.20804426  0.48748788  0.10972028    -0.83800
C28         C  0.20767555  0.00344994  0.11904314     1.03900
O29         O  0.20964843  0.00248939  0.15234569    -0.76600
O30         O  0.21325228  0.98072126  0.21851704    -0.76800
C31         C  0.18772793  0.46185473  0.23576653     1.03900
O32         O  0.24272068  0.45271234  0.23423035    -0.84100
O33         O  0.24100024  0.41729617  0.17786332    -0.81100
C34         C  0.23926195  0.40756405  0.14670326     0.99400
O35         O  0.22629738  0.41537182  0.12213234    -0.81200
O36         O  0.26455963  0.48066950  0.11174628    -0.83800
C37         C  0.28701949  0.01293129  0.11433289     1.03900
O38         O  0.27407381  0.02160179  0.13732146    -0.76600
O39         O  0.27836937  0.99546971  0.20068967    -0.76700
C40         C  0.27050878  0.47550894  0.22883250     1.03800
Cr41       Cr  0.21003867  0.42787663  0.19693060     1.93700
Cr42       Cr  0.21793995  0.45237424  0.12014673     1.93200
Cr43       Cr  0.24301464  0.99739490  0.17613317     1.39100
O44         O  0.22210145  0.45951773  0.16661693    -1.21800
O45         O  0.04732670  0.23811322  0.22862792    -0.84100
O46         O  0.08860532  0.28064604  0.18010798    -0.81100
C47         C  0.08718235  0.26330101  0.15481639     0.99400
O48         O  0.06141833  0.24682746  0.13840304    -0.81200
O49         O  0.99720949  0.21984460  0.12144816    -0.83800
C50         C  0.48340991  0.20786592  0.12575770     1.03900
O51         O  0.47230715  0.21810911  0.14906717    -0.76600
O52         O  0.50276927  0.21629149  0.20966299    -0.76800
C53         C  0.02195083  0.21915472  0.24440442     1.03900
O54         O  0.02962999  0.28276562  0.25014486    -0.84100
O55         O  0.06422300  0.32114087  0.19371570    -0.81100
C56         C  0.07671492  0.33009521  0.16350652     0.99400
O57         O  0.06892069  0.31013409  0.13827456    -0.81200
O58         O  0.00413750  0.28234640  0.12441907    -0.83800
C59         C  0.48341352  0.28442322  0.13457550     1.03900
O60         O  0.48264797  0.27912010  0.16745774    -0.76600
O61         O  0.50704765  0.27686811  0.23208667    -0.76700
C62         C  0.00816321  0.28977149  0.24554883     1.03800
Cr63       Cr  0.05497445  0.27913507  0.21096765     1.93700
Cr64       Cr  0.03205761  0.26432988  0.13415766     1.93200
Cr65       Cr  0.49423266  0.24902638  0.18835295     1.39100
O66         O  0.02345268  0.26003549  0.18027694    -1.21800
O67         O  0.20445270  0.07835033  0.06661276    -0.84100
O68         O  0.24959907  0.08710692  0.01684450    -0.81100
C69         C  0.25940342  0.09291645  0.49211387     0.99400
O70         O  0.25370848  0.10550041  0.46551015    -0.81200
O71         O  0.18972607  0.06550791  0.44743802    -0.83800
C72         C  0.15982643  0.05208675  0.45077813     1.03900
O73         O  0.14727487  0.06380400  0.47023966    -0.76600
O74         O  0.16941964  0.04834129  0.02780497    -0.76800
C75         C  0.18601764  0.05108040  0.05477003     1.03900
O76         O  0.22074000  0.14225560  0.05644339    -0.84100
O77         O  0.27029719  0.15307209  0.01487318    -0.81100
C78         C  0.26513387  0.17122882  0.48342954     0.99400
O79         O  0.24366716  0.15932375  0.45998568    -0.81200
O80         O  0.18319205  0.12043226  0.43561521    -0.83800
C81         C  0.16664400  0.13054101  0.45022994     1.03900
O82         O  0.16101892  0.12678527  0.48324561    -0.76600
O83         O  0.16980397  0.10655528  0.05422011    -0.76700
C84         C  0.19248205  0.13281455  0.06538201     1.03800
Cr85       Cr  0.23428695  0.11444117  0.03592362     1.93700
Cr86       Cr  0.21671632  0.11226382  0.45537505     1.93200
Cr87       Cr  0.16669779  0.08500202  0.00723458     1.39100
O88         O  0.20819092  0.10608009  0.99936330    -1.21800
O89         O  0.41689384  0.12239081  0.07320554    -0.84100
O90         O  0.42371968  0.16688644  0.02452358    -0.81100
C91         C  0.42007881  0.17725597  0.49532677     0.99400
O92         O  0.40992280  0.16057704  0.46756092    -0.81200
O93         O  0.45009743  0.13555491  0.45784568    -0.83800
C94         C  0.46168634  0.11757774  0.46254359     1.03900
O95         O  0.44738042  0.09261091  0.48100138    -0.76600
O96         O  0.45381560  0.11826442  0.04617750    -0.76800
C97         C  0.44596593  0.13151974  0.06943549     1.03900
O98         O  0.35624363  0.07967773  0.04373919    -0.84100
O99         O  0.35999788  0.12576799  0.99941173    -0.81100
C100        C  0.34144335  0.10726394  0.47408611     0.99400
O101        O  0.35643494  0.09870563  0.45410979    -0.81200
O102        O  0.39702076  0.07663479  0.43896139    -0.83800
C103        C  0.38533909  0.04900296  0.45174192     1.03900
O104        O  0.38276071  0.04420772  0.48506361    -0.76600
O105        O  0.38895527  0.06154487  0.05362721    -0.76700
C106        C  0.36183292  0.05919492  0.05725537     1.03800
Cr107      Cr  0.39040467  0.12276474  0.03285744     1.93700
Cr108      Cr  0.40318404  0.11712981  0.45798433     1.93200
Cr109      Cr  0.42166098  0.08379549  0.01471888     1.39100
O110        O  0.40691112  0.10891236  0.00088126    -1.21800
O111        O  0.35678261  0.27896486  0.04712296    -0.84100
O112        O  0.35926700  0.24266997  0.99393020    -0.79300
C113        C  0.33703871  0.24902838  0.46771493     0.99400
O114        O  0.35091747  0.27428279  0.44998042    -0.81200
O115        O  0.39504255  0.33566524  0.43448612    -0.83800
C116        C  0.39027881  0.35411790  0.45361480     1.03900
O117        O  0.39710640  0.35751696  0.48614664    -0.76600
O118        O  0.39103046  0.32735273  0.06425375    -0.76800
C119        C  0.36345211  0.30287151  0.06573625     1.03900
O120        O  0.41856380  0.29329676  0.07041636    -0.84100
O121        O  0.42327990  0.26293237  0.01080131    -0.81100
C122        C  0.41221713  0.24833810  0.47565918     0.99400
O123        O  0.40019376  0.25719986  0.45123554    -0.81200
O124        O  0.44416339  0.31875289  0.43942822    -0.83800
C125        C  0.46409847  0.34673212  0.44773928     1.03900
O126        O  0.45760554  0.36126378  0.47130720    -0.76600
O127        O  0.45445986  0.33725484  0.04598786    -0.76700
C128        C  0.44700202  0.31537008  0.06831629     1.03800
Cr129      Cr  0.39054160  0.27187006  0.02875621     1.93700
Cr130      Cr  0.39803668  0.29735181  0.44749848     1.93200
Cr131      Cr  0.42126263  0.34320822  0.02197483     1.39100
O132        O  0.40279123  0.30531892  0.49389632    -1.21800
O133        O  0.37553995  0.41848149  0.39529009    -0.84100
O134        O  0.40991447  0.42250193  0.33617610    -0.81100
C135        C  0.41932055  0.42653646  0.30445519     0.99400
O136        O  0.41011801  0.43998647  0.28206230    -0.81200
O137        O  0.34590634  0.39804608  0.27112036    -0.83800
C138        C  0.31732503  0.38033037  0.28051355     1.03900
O139        O  0.30572776  0.38800922  0.30583022    -0.76600
O140        O  0.33461753  0.38268294  0.36638636    -0.76800
C141        C  0.35606406  0.38979365  0.38938261     1.03900
O142        O  0.38545919  0.47951323  0.38075707    -0.84100
O143        O  0.42780571  0.48732720  0.32805032    -0.81100
C144        C  0.42144012  0.50418740  0.30794694     0.99400
O145        O  0.39602532  0.49154867  0.28993291    -0.81200
O146        O  0.33290550  0.44963117  0.27483805    -0.83800
C147        C  0.31488474  0.45347089  0.29594481     1.03900
O148        O  0.31368243  0.44667314  0.32859613    -0.76600
O149        O  0.33749049  0.44058630  0.39364128    -0.76700
C150        C  0.36034257  0.46848026  0.39890976     1.03800
Cr151      Cr  0.39730950  0.45097825  0.35788489     1.93700
Cr152      Cr  0.37080854  0.44433976  0.28278278     1.93200
Cr153      Cr  0.32576947  0.41600683  0.34745412     1.39100
O154        O  0.36438930  0.43726558  0.32901785    -1.21800
O155        O  0.08955983  0.47904460  0.38377388    -0.84100
O156        O  0.04265523  0.47345648  0.33934925    -0.81100
C157        C  0.05902878  0.48520035  0.31162137     0.99400
O158        O  0.06570802  0.46860711  0.29184710    -0.81200
O159        O  0.08349839  0.42444362  0.27717360    -0.83800
C160        C  0.11176439  0.43653680  0.28823822     1.03900
O161        O  0.11822024  0.44073634  0.32112396    -0.76600
O162        O  0.10903090  0.44744755  0.39333217    -0.76800
C163        C  0.11047101  0.47408338  0.39742483     1.03900
O164        O  0.04770575  0.41981211  0.41550708    -0.84100
O165        O  0.00143717  0.41113334  0.36748976    -0.81100
C166        C  0.98755414  0.40931107  0.33856817     0.99400
O167        O  0.00310364  0.41816625  0.30991815    -0.81200
O168        O  0.02408237  0.37493170  0.30123274    -0.83800
C169        C  0.04050085  0.36169776  0.30665254     1.03900
O170        O  0.06704670  0.37619199  0.32269917    -0.76600
O171        O  0.05238433  0.38253236  0.39029952    -0.76700
C172        C  0.03911108  0.39091302  0.41292443     1.03800
Cr173      Cr  0.04614351  0.44451403  0.37422168     1.93700
Cr174      Cr  0.04507496  0.42194123  0.29838115     1.93200
Cr175      Cr  0.08511897  0.41292243  0.35636863     1.39100
O176        O  0.05920737  0.42680243  0.34279391    -1.21800
O177        O  0.01671294  0.09204766  0.36890466    -0.84100
O178        O  0.02974581  0.05823919  0.32113505    -0.81100
C179        C  0.01658334  0.06184588  0.29388939     0.99400
O180        O  0.02899405  0.08812001  0.27777334    -0.81200
O181        O  0.06562477  0.15268696  0.26770098    -0.83800
C182        C  0.05086967  0.16490406  0.28214269     1.03900
O183        O  0.04749955  0.16399704  0.31548404    -0.76600
O184        O  0.04374228  0.14207513  0.38480006    -0.76800
C185        C  0.01868109  0.11499224  0.38606701     1.03900
O186        O  0.07626221  0.11380053  0.40246778    -0.84100
O187        O  0.09280652  0.08619716  0.34925657    -0.81100
C188        C  0.09445945  0.07571032  0.31945001     0.99400
O189        O  0.08563498  0.08417480  0.29159295    -0.81200
O190        O  0.12174869  0.15089349  0.28628907    -0.83800
C191        C  0.13079774  0.17954186  0.29347048     1.03900
O192        O  0.11434739  0.18636979  0.31373648    -0.76600
O193        O  0.11082793  0.16007034  0.38076133    -0.76700
C194        C  0.10269512  0.13892290  0.40449132     1.03800
Cr195      Cr  0.05508218  0.09011249  0.35827264     1.93700
Cr196      Cr  0.07522698  0.11926580  0.28425630     1.93200
Cr197      Cr  0.07853618  0.16049239  0.34763913     1.39100
O198        O  0.06958365  0.12346607  0.32989305    -1.21800
C199        C  0.08699219  0.02629282  0.29410841    -0.15200
C200        C  0.10019734  0.04881905  0.31905566    -0.30300
H201        H  0.07850129  0.03074618  0.26911992     0.13900
H202        H  0.10782467  0.04315204  0.34399180     0.14400
C203        C  0.44840825  0.04047359  0.31142954    -0.15200
C204        C  0.47293754  0.05388804  0.28865354    -0.30300
H205        H  0.45136326  0.05188670  0.33699537     0.13900
H206        H  0.47164819  0.04267708  0.26340391     0.14400
C207        C  0.44452358  0.41951571  0.29498400    -0.15200
C208        C  0.45593981  0.40759318  0.31963050    -0.30300
H209        H  0.45789220  0.43027432  0.27085811     0.13900
H210        H  0.44275940  0.39760524  0.34407077     0.14400
C211        C  0.37870278  0.37395890  0.43764808    -0.15200
C212        C  0.36010568  0.36560595  0.40855186    -0.30300
H213        H  0.38669240  0.39690051  0.44986817     0.13900
H214        H  0.35030822  0.34204066  0.39734362     0.14400
C215        C  0.49417245  0.36240310  0.42697027    -0.15200
C216        C  0.01093233  0.36700009  0.43258883    -0.30300
H217        H  0.49505074  0.35055297  0.40301642     0.13900
H218        H  0.00301522  0.34208255  0.42837170     0.14400
C219        C  0.49009510  0.12251182  0.44375034    -0.15200
C220        C  0.99207621  0.10861830  0.40949194    -0.30300
H221        H  0.49667896  0.10429649  0.44735281     0.13900
H222        H  0.97320410  0.08401845  0.41192315     0.14400
C223        C  0.35861160  0.48848713  0.42679045    -0.15200
C224        C  0.37939052  0.02428292  0.42580909    -0.30300
H225        H  0.34930646  0.47879626  0.45290554     0.13900
H226        H  0.39192095  0.03326746  0.40076829     0.14400
C227        C  0.41867657  0.22246407  0.46872224    -0.15200
C228        C  0.42864301  0.21067419  0.49496892    -0.30300
H229        H  0.40975122  0.20956111  0.44397768     0.13900
H230        H  0.43708355  0.22347097  0.51985979     0.14400
C231        C  0.15214540  0.14439919  0.42683553    -0.15200
C232        C  0.12381668  0.14138877  0.43401968    -0.30300
H233        H  0.16140664  0.15080777  0.39996758     0.13900
H234        H  0.11283019  0.13157666  0.45954984     0.14400
C235        C  0.13559481  0.49936520  0.41986502    -0.15200
C236        C  0.13783925  0.02467086  0.42928888    -0.30300
H237        H  0.15926440  0.50223975  0.42098443     0.13900
H238        H  0.11570346  0.02405444  0.42247760     0.14400
C239        C  0.28762362  0.20511156  0.48636249    -0.15200
C240        C  0.30442997  0.22386672  0.45933117    -0.30300
H241        H  0.30688344  0.21185558  0.02122525     0.13900
H242        H  0.29721504  0.21729685  0.43189521     0.14400
C243        C  0.30856021  0.09895277  0.46596988    -0.15200
C244        C  0.28723315  0.08854376  0.49244492    -0.30300
H245        H  0.30310206  0.10511522  0.44007295     0.13900
H246        H  0.29801783  0.08047173  0.01144660     0.14400
C247        C  0.47132222  0.31382638  0.09014659    -0.15200
C248        C  0.46324150  0.29620973  0.11987693    -0.30300
H249        H  0.49521384  0.32393296  0.07947074     0.13900
H250        H  0.43999982  0.28772616  0.13175470     0.14400
C251        C  0.47032295  0.15964375  0.08933142    -0.15200
C252        C  0.46153512  0.17643691  0.11004056    -0.30300
H253        H  0.49534564  0.16843666  0.08409510     0.13900
H254        H  0.93434825  0.15029813  0.13466922     0.14400
C255        C  0.03112063  0.33016679  0.29204435    -0.15200
C256        C  0.00848281  0.31534366  0.26703118    -0.30300
H257        H  0.04661328  0.32075929  0.29901714     0.13900
H258        H  0.99296933  0.32452553  0.25935114     0.14400
C259        C  0.04121224  0.18310442  0.25885903    -0.15200
C260        C  0.02258642  0.19504170  0.26802805    -0.30300
H261        H  0.05200605  0.18870588  0.23262369     0.13900
H262        H  0.00974571  0.18863717  0.29299413     0.14400
C263        C  0.19732868  0.02500963  0.10410442    -0.15200
C264        C  0.18629301  0.02334700  0.07089904    -0.30300
H265        H  0.20121163  0.04476850  0.12078949     0.13900
H266        H  0.18052616  0.00295940  0.05439792     0.14400
C267        C  0.31511791  0.03778728  0.09556549    -0.15200
C268        C  0.33655146  0.03304024  0.07830780    -0.30300
H269        H  0.30903576  0.55735758  0.09681680     0.13900
H270        H  0.33554556  0.01025843  0.07979845     0.14400
C271        C  0.13560355  0.44190236  0.26133929    -0.15200
C272        C  0.16693729  0.46178049  0.26416491    -0.30300
H273        H  0.12625489  0.42834294  0.23701027     0.13900
H274        H  0.17696090  0.47742585  0.28683131     0.14400
C275        C  0.29720729  0.47734653  0.24962891    -0.15200
C276        C  0.29242798  0.46271369  0.28132480    -0.30300
H277        H  0.32031840  0.48764597  0.23691884     0.13900
H278        H  0.26985454  0.45401627  0.29488018     0.14400
C279        C  0.12599877  0.37262598  0.13491469    -0.15200
C280        C  0.10410900  0.36277535  0.16079609    -0.30300
H281        H  0.12158865  0.35873180  0.11096588     0.13900
H282        H  0.10970710  0.37734972  0.18444562     0.14400
C283        C  0.33924402  0.30083001  0.09078306    -0.15200
C284        C  0.30896691  0.28921897  0.07995887    -0.30300
H285        H  0.34578099  0.30701550  0.11844358     0.13900
H286        H  0.30336797  0.28547241  0.05176413     0.14400
C287        C  0.20760342  0.16918941  0.11466945    -0.15200
C288        C  0.18679697  0.15366569  0.08842492    -0.30300
H289        H  0.22359941  0.16093575  0.12369576     0.13900
H290        H  0.16945953  0.16037575  0.08012329     0.14400
C291        C  0.30337201  0.33665944  0.23651081    -0.15200
C292        C  0.29537634  0.35071983  0.26181281    -0.30300
H293        H  0.32806482  0.34642008  0.22883839     0.13900
H294        H  0.27053449  0.34007077  0.26939657     0.14400
C295        C  0.17998595  0.20395353  0.25531756    -0.15200
C296        C  0.15804816  0.20620609  0.27486184    -0.30300
H297        H  0.18153014  0.18245212  0.25614295     0.13900
H298        H  0.15836694  0.22871101  0.27489725     0.14400
C299        C  0.23384801  0.35879123  0.12081401    -0.15200
C300        C  0.24985855  0.38436016  0.14150897    -0.30300
H301        H  0.21760262  0.35845190  0.10053509     0.13900
H302        H  0.26553316  0.38389026  0.16204644     0.14400
C303        C  0.12413824  0.24384177  0.13831602    -0.15200
C304        C  0.11752258  0.26722891  0.14300568    -0.30300
H305        H  0.10546672  0.21923280  0.13619036     0.13900
H306        H  0.13717746  0.29147901  0.14511673     0.14400
O307        O  0.25524398  0.29120116  0.74380989    -0.84100
O308        O  0.25598547  0.33084890  0.69028896    -0.81100
C309        C  0.25282621  0.34033337  0.66007166     0.99400
O310        O  0.23953186  0.32085585  0.63469122    -0.81200
O311        O  0.27927700  0.29660151  0.61726247    -0.83800
C312        C  0.29521930  0.28292435  0.62364570     1.03900
O313        O  0.28650619  0.26188974  0.64763607    -0.76600
O314        O  0.29116655  0.28877257  0.71295118    -0.76800
C315        C  0.28409701  0.30178985  0.73711652     1.03900
O316        O  0.19308241  0.24582949  0.72394052    -0.84100
O317        O  0.19078264  0.28822089  0.67747047    -0.81100
C318        C  0.17291797  0.26690817  0.65617816     0.99400
O319        O  0.18483934  0.25591961  0.63470628    -0.81200
O320        O  0.22456698  0.23330713  0.61410074    -0.83800
C321        C  0.21935419  0.20900446  0.63217324     1.03900
O322        O  0.22562450  0.21079254  0.66491174    -0.76600
O323        O  0.22902437  0.23136617  0.73259084    -0.76700
C324        C  0.20120443  0.22713146  0.73739131     1.03800
Cr325      Cr  0.22480186  0.28793904  0.70658301     1.93700
Cr326      Cr  0.23244246  0.27638215  0.62845512     1.93200
Cr327      Cr  0.25692457  0.24997619  0.68886695     1.39100
O328        O  0.23791151  0.27107515  0.67415618    -1.21800
O329        O  0.18494007  0.43790416  0.72215583    -0.84100
O330        O  0.17862833  0.39796347  0.66820398    -0.81100
C331        C  0.16062261  0.40307664  0.64831714     0.99400
O332        O  0.17189831  0.42815845  0.62997417    -0.81200
O333        O  0.21093395  0.49195016  0.61607579    -0.83800
C334        C  0.20606603  0.01769940  0.63169987     1.03900
O335        O  0.21256998  0.01957931  0.66445740    -0.76600
O336        O  0.21853908  0.99850770  0.73023980    -0.76800
C337        C  0.19438048  0.46280858  0.74007009     1.03900
O338        O  0.24819989  0.45167231  0.73503151    -0.84100
O339        O  0.24478856  0.41873873  0.67445442    -0.81100
C340        C  0.23976233  0.40875851  0.64294173     0.99400
O341        O  0.22545809  0.41749203  0.62112657    -0.81200
O342        O  0.26500632  0.48244907  0.61125210    -0.83800
C343        C  0.28060458  0.01771728  0.61863407     1.03900
O344        O  0.27275403  0.02950527  0.64360258    -0.76600
O345        O  0.27987454  0.00498865  0.70692321    -0.76700
C346        C  0.27598980  0.47448180  0.73037726     1.03800
Cr347      Cr  0.21502494  0.42897502  0.69779470     1.93700
Cr348      Cr  0.21893067  0.45548903  0.62298856     1.93200
Cr349      Cr  0.24463097  0.01011299  0.68539415     1.39100
O350        O  0.22635071  0.46172070  0.66933702    -1.21800
O351        O  0.04449246  0.24825018  0.73156308    -0.84100
O352        O  0.08101078  0.25311966  0.67337878    -0.81100
C353        C  0.08970882  0.25485223  0.64146748     0.99400
O354        O  0.07565520  0.26108462  0.61681689    -0.81200
O355        O  0.01054946  0.21570017  0.61137892    -0.83800
C356        C  0.48368246  0.20230290  0.62868426     1.03900
O357        O  0.48513997  0.20643806  0.66172745    -0.76600
O358        O  0.51107961  0.23204536  0.72600860    -0.76800
C359        C  0.02417836  0.21921819  0.72843227     1.03900
O360        O  0.05041309  0.30829584  0.71253696    -0.84100
O361        O  0.09126929  0.31475576  0.65934953    -0.81100
C362        C  0.08535839  0.32687775  0.63270139     0.99400
O363        O  0.06033436  0.31085972  0.61457032    -0.81200
O364        O  0.99618259  0.26700041  0.60613951    -0.83800
C365        C  0.48328582  0.27815043  0.62181371     1.03900
O366        O  0.47288680  0.25682182  0.64558891    -0.76600
O367        O  0.50244265  0.28640274  0.70714706    -0.76700
C368        C  0.02465657  0.29853339  0.72909612     1.03800
Cr369      Cr  0.06392930  0.27957603  0.69188910     1.93700
Cr370      Cr  0.03510846  0.26329590  0.61614284     1.93200
Cr371      Cr  0.49595146  0.24716580  0.68369790     1.39100
O372        O  0.03030588  0.26176659  0.66326735    -1.21800
O373        O  0.20405813  0.08995073  0.57126363    -0.84100
O374        O  0.24438648  0.08851937  0.52067029    -0.81100
C375        C  0.26588082  0.09528229  0.98888463     0.99400
O376        O  0.26162047  0.11145134  0.96500800    -0.81200
O377        O  0.20137000  0.07434828  0.93740487    -0.83800
C378        C  0.17172148  0.05650924  0.93942341     1.03900
O379        O  0.15530630  0.06096771  0.96206144    -0.76600
O380        O  0.16388490  0.05761214  0.53859225    -0.76800
C381        C  0.18239632  0.06214200  0.56446349     1.03900
O382        O  0.22399119  0.15342277  0.55030291    -0.84100
O383        O  0.26783277  0.15381359  0.50644259    -0.81100
C384        C  0.26965162  0.17243033  0.99291153     0.99400
O385        O  0.24842839  0.16324231  0.96936950    -0.81200
O386        O  0.19018854  0.12651445  0.93845299    -0.83800
C387        C  0.16836958  0.12863870  0.95407497     1.03900
O388        O  0.16010561  0.11842786  0.98539806    -0.76600
O389        O  0.17242391  0.12115518  0.55413918    -0.76700
C390        C  0.19709673  0.14748820  0.56093030     1.03800
Cr391      Cr  0.23291742  0.12041835  0.53472300     1.93700
Cr392      Cr  0.22416414  0.11795689  0.95595548     1.93200
Cr393      Cr  0.16396681  0.09331955  0.51119538     1.39100
O394        O  0.20439454  0.10877755  0.50024829    -1.21800
O395        O  0.41205614  0.12081508  0.57482138    -0.84100
O396        O  0.41918562  0.16461330  0.52479144    -0.81100
C397        C  0.42559927  0.18048120  0.99544648     0.99400
O398        O  0.41571060  0.16462070  0.96700811    -0.81200
O399        O  0.45689971  0.14158351  0.95578213    -0.83800
C400        C  0.47001377  0.12510336  0.96093148     1.03900
O401        O  0.45639279  0.09969094  0.97886588    -0.76600
O402        O  0.44677970  0.11315739  0.54752576    -0.76800
C403        C  0.44058832  0.12798724  0.57041705     1.03900
O404        O  0.35036864  0.07877514  0.54640622    -0.84100
O405        O  0.35464076  0.12389449  0.50127083    -0.81100
C406        C  0.34770695  0.11021335  0.97135137     0.99400
O407        O  0.36317138  0.10214501  0.95156146    -0.81200
O408        O  0.40486625  0.08143650  0.93610013    -0.83800
C409        C  0.39349125  0.05372761  0.94883425     1.03900
O410        O  0.39199615  0.04902529  0.98212506    -0.76600
O411        O  0.38114652  0.05853967  0.55677492    -0.76700
C412        C  0.35475140  0.05770204  0.56035055     1.03800
Cr413      Cr  0.38521194  0.12096851  0.53457709     1.93700
Cr414      Cr  0.40991858  0.12154674  0.95601959     1.93200
Cr415      Cr  0.41341620  0.07889998  0.51720671     1.39100
O416        O  0.40021738  0.10525147  0.50300493    -1.21800
O417        O  0.35695673  0.28585837  0.54286142    -0.84100
O418        O  0.35167085  0.24365488  0.49225601    -0.79300
C419        C  0.34305048  0.24860455  0.97216028     0.99400
O420        O  0.35584344  0.27439968  0.95514899    -0.81200
O421        O  0.39604583  0.33806662  0.94527318    -0.83800
C422        C  0.38628327  0.35195516  0.96569659     1.03900
O423        O  0.39007106  0.35217804  0.99883646    -0.76600
O424        O  0.39443687  0.33507841  0.55323928    -0.76800
C425        C  0.36624361  0.31188756  0.55839720     1.03900
O426        O  0.41697255  0.29467424  0.56400458    -0.84100
O427        O  0.41531536  0.25894426  0.50676792    -0.81100
C428        C  0.42143389  0.25402971  0.97900648     0.99400
O429        O  0.40968378  0.26370793  0.95509159    -0.81200
O430        O  0.45012843  0.32790403  0.95053069    -0.83800
C431        C  0.46575541  0.35602678  0.96155976     1.03900
O432        O  0.45386230  0.36636017  0.98403219    -0.76600
O433        O  0.45486547  0.33507752  0.53659093    -0.76700
C434        C  0.44615407  0.31403010  0.56020978     1.03800
Cr435      Cr  0.38650843  0.27323974  0.52414349     1.93700
Cr436      Cr  0.40316561  0.30148695  0.95478900     1.93200
Cr437      Cr  0.42449668  0.34440841  0.51076483     1.39100
O438        O  0.40490590  0.30572024  0.00159004    -1.21800
O439        O  0.37478898  0.41686485  0.90558998    -0.84100
O440        O  0.40941163  0.41875627  0.84679885    -0.81100
C441        C  0.41870601  0.42220307  0.81500509     0.99400
O442        O  0.41098810  0.43692151  0.79280191    -0.81200
O443        O  0.34764347  0.39475465  0.78306471    -0.83800
C444        C  0.31904077  0.37745230  0.79237041     1.03900
O445        O  0.30651111  0.38691586  0.81486310    -0.76600
O446        O  0.33281086  0.38190253  0.87725634    -0.76800
C447        C  0.35405312  0.38842300  0.90036651     1.03900
O448        O  0.38699840  0.47847527  0.88919940    -0.84100
O449        O  0.42810371  0.48402421  0.83699495    -0.81100
C450        C  0.42141438  0.50099047  0.81740724     0.99400
O451        O  0.39674621  0.48831233  0.79819598    -0.81200
O452        O  0.33433845  0.44619871  0.78161379    -0.83800
C453        C  0.31732451  0.45249590  0.80145356     1.03900
O454        O  0.31587649  0.44724314  0.83454355    -0.76600
O455        O  0.33783574  0.44171909  0.90121945    -0.76700
C456        C  0.36155936  0.46917575  0.90625214     1.03800
Cr457      Cr  0.39756925  0.44852623  0.86755466     1.93700
Cr458      Cr  0.37195028  0.44120940  0.79210364     1.93200
Cr459      Cr  0.32603970  0.41584554  0.85594627     1.39100
O460        O  0.36496290  0.43535767  0.83834272    -1.21800
O461        O  0.09161585  0.48430120  0.87360722    -0.84100
O462        O  0.04259735  0.47824458  0.82985582    -0.81100
C463        C  0.05577763  0.48917039  0.80043648     0.99400
O464        O  0.06655556  0.47474238  0.78270713    -0.81200
O465        O  0.08969373  0.43397694  0.77057736    -0.83800
C466        C  0.11657502  0.44279594  0.78452049     1.03900
O467        O  0.12041422  0.44343436  0.81796489    -0.76600
O468        O  0.10724816  0.45033375  0.88790869    -0.76800
C469        C  0.11118299  0.47818796  0.88908965     1.03900
O470        O  0.04871282  0.42635871  0.90743198    -0.84100
O471        O  0.00303850  0.41663715  0.85731580    -0.81100
C472        C  0.98948997  0.41305784  0.82763078     0.99400
O473        O  0.00513489  0.42051334  0.79891012    -0.81200
O474        O  0.03028869  0.38033673  0.78750313    -0.83800
C475        C  0.04733942  0.36792615  0.79416414     1.03900
O476        O  0.06998983  0.38071259  0.81612172    -0.76600
O477        O  0.04852754  0.38625576  0.88297632    -0.76700
C478        C  0.03819064  0.39703784  0.90669946     1.03800
Cr479      Cr  0.04758252  0.45003065  0.86458257     1.93700
Cr480      Cr  0.04881120  0.42772997  0.78867416     1.93200
Cr481      Cr  0.08458018  0.41618787  0.85059772     1.39100
O482        O  0.06073077  0.43160583  0.83402354    -1.21800
O483        O  0.03401027  0.11375613  0.89719152    -0.84100
O484        O  0.00699787  0.08599093  0.83320820    -0.81100
C485        C  0.00334485  0.07844406  0.80088975     0.99400
O486        O  0.02717375  0.08926439  0.78055195    -0.81200
O487        O  0.04833464  0.15356672  0.77880282    -0.83800
C488        C  0.05947376  0.18142223  0.79040506     1.03900
O489        O  0.07931106  0.19142085  0.81581874    -0.76600
O490        O  0.04622888  0.16027172  0.87581247    -0.76800
C491        C  0.02983382  0.13732690  0.89636199     1.03900
O492        O  0.08466382  0.10250373  0.88429679    -0.84100
O493        O  0.05484528  0.06812936  0.82442631    -0.81100
C494        C  0.07815347  0.07604291  0.80384374     0.99400
O495        O  0.09218258  0.10333246  0.78999148    -0.81200
O496        O  0.11307742  0.16697422  0.78087621    -0.83800
C497        C  0.13532736  0.18190997  0.80301364     1.03900
O498        O  0.12974941  0.17991407  0.83587885    -0.76600
O499        O  0.09934724  0.15179373  0.89868623    -0.76700
C500        C  0.10032562  0.12643801  0.90361655     1.03800
Cr501      Cr  0.04676903  0.09535962  0.85773801     1.93700
Cr502      Cr  0.07010483  0.12853253  0.78614995     1.93200
Cr503      Cr  0.08717538  0.16792289  0.85500497     1.39100
O504        O  0.06846023  0.13081341  0.83303134    -1.21800
C505        C  0.06631566  0.02312446  0.78711041    -0.15200
C506        C  0.08826370  0.05258779  0.79678272    -0.30300
H507        H  0.04328569  0.01929058  0.77815121     0.13900
H508        H  0.11098559  0.05712566  0.80757106     0.14400
C509        C  0.44769682  0.04204481  0.80978052    -0.15200
C510        C  0.47442171  0.05355474  0.79066424    -0.30300
H511        H  0.44725202  0.05513858  0.83277795     0.13900
H512        H  0.47508124  0.03980673  0.76840695     0.14400
C513        C  0.44191185  0.41282263  0.80445210    -0.15200
C514        C  0.45247502  0.39907577  0.82766121    -0.30300
H515        H  0.45469660  0.42289130  0.77982367     0.13900
H516        H  0.43989587  0.38956873  0.85253376     0.14400
C517        C  0.37320752  0.37093273  0.95067890    -0.15200
C518        C  0.35670459  0.36361828  0.92006302    -0.30300
H519        H  0.37940487  0.39299738  0.96407175     0.13900
H520        H  0.34858589  0.34078520  0.90756009     0.14400
C521        C  0.49737494  0.37836209  0.94670349    -0.15200
C522        C  0.01248209  0.37697429  0.93217707    -0.30300
H523        H  0.50649794  0.40325879  0.95259880     0.13900
H524        H  0.01102638  0.38833360  0.95624182     0.14400
C525        C  0.50018267  0.13292462  0.94394140    -0.15200
C526        C  0.00494985  0.13718281  0.91902206    -0.30300
H527        H  0.51077158  0.11888140  0.95269464     0.13900
H528        H  0.99593622  0.15301696  0.91230779     0.14400
C529        C  0.36055351  0.49068147  0.93278072    -0.15200
C530        C  0.38578659  0.02830365  0.92301528    -0.30300
H531        H  0.34838436  0.48151894  0.95788920     0.13900
H532        H  0.39734043  0.03646122  0.89735215     0.14400
C533        C  0.42796860  0.22836307  0.97059381    -0.15200
C534        C  0.43557089  0.21430544  0.99657909    -0.30300
H535        H  0.42004932  0.21693769  0.94491288     0.13900
H536        H  0.44306494  0.22570200  0.02234538     0.14400
C537        C  0.15051160  0.14050444  0.93355992    -0.15200
C538        C  0.11870736  0.12361317  0.93308951    -0.30300
H539        H  0.16292363  0.15854816  0.91331124     0.13900
H540        H  0.10655327  0.10282380  0.95015652     0.14400
C541        C  0.13734381  0.50301483  0.91091956    -0.15200
C542        C  0.15517893  0.03087831  0.91394939    -0.30300
H543        H  0.15822179  0.50108641  0.91711428     0.13900
H544        H  0.16002807  0.03589007  0.88577700     0.14400
C545        C  0.29525754  0.20522011  0.99533956    -0.15200
C546        C  0.30962401  0.22400225  0.96719468    -0.30300
H547        H  0.29617045  0.21287270  0.51331066     0.13900
H548        H  0.29904313  0.21850019  0.94082298     0.14400
C549        C  0.31528355  0.10260176  0.96215303    -0.15200
C550        C  0.29305469  0.08999355  0.98748533    -0.30300
H551        H  0.31117333  0.11188832  0.93756315     0.13900
H552        H  0.29339057  0.08193753  0.51774037     0.14400
C553        C  0.46993060  0.31077760  0.58187142    -0.15200
C554        C  0.46098275  0.28696535  0.60554960    -0.30300
H555        H  0.49496306  0.32614623  0.57584464     0.13900
H556        H  0.43592350  0.27193388  0.61176337     0.14400
C557        C  0.46657896  0.15595384  0.58872161    -0.15200
C558        C  0.46043339  0.17055219  0.61507079    -0.30300
H559        H  0.49052156  0.16648407  0.57814004     0.13900
H560        H  0.93420766  0.15928322  0.61116484     0.14400
C561        C  0.04495363  0.34072372  0.77381439    -0.15200
C562        C  0.02070769  0.32066368  0.75289128    -0.30300
H563        H  0.06595712  0.33812754  0.77486985     0.13900
H564        H  0.99843681  0.32087794  0.75267466     0.14400
C565        C  0.05132050  0.20385937  0.77325627    -0.15200
C566        C  0.02770283  0.19521643  0.74929818    -0.30300
H567        H  0.06625890  0.22876626  0.77982264     0.13900
H568        H  0.01216247  0.17031667  0.74318027     0.14400
C569        C  0.19665977  0.03996912  0.61614505    -0.15200
C570        C  0.18115887  0.03523689  0.58485269    -0.30300
H571        H  0.20552810  0.06255240  0.62953405     0.13900
H572        H  0.17075805  0.01223912  0.57209478     0.14400
C573        C  0.30802071  0.03974728  0.59721038    -0.15200
C574        C  0.32891520  0.03299503  0.58211494    -0.30300
H575        H  0.31139687  0.55880668  0.59765991     0.13900
H576        H  0.32737397  0.01017007  0.58640939     0.14400
C577        C  0.14207317  0.44899052  0.75963779    -0.15200
C578        C  0.17311232  0.46331711  0.76730388    -0.30300
H579        H  0.13431755  0.43997940  0.73286061     0.13900
H580        H  0.18238093  0.47468712  0.79273937     0.14400
C581        C  0.30201383  0.47585018  0.75210373    -0.15200
C582        C  0.29636856  0.46280879  0.78486588    -0.30300
H583        H  0.32497996  0.48426050  0.73960069     0.13900
H584        H  0.27402209  0.45617646  0.79801742     0.14400
C585        C  0.12642660  0.37958012  0.64977753    -0.15200
C586        C  0.10976813  0.35982322  0.62307814    -0.30300
H587        H  0.11749096  0.37233042  0.67665906     0.13900
H588        H  0.11789190  0.36542075  0.59578954     0.14400
C589        C  0.34356329  0.31394074  0.58351002    -0.15200
C590        C  0.32212048  0.28739527  0.60087658    -0.30300
H591        H  0.34410208  0.33628759  0.58730653     0.13900
H592        H  0.32438718  0.26635346  0.59851357     0.14400
C593        C  0.20895670  0.17851289  0.61449940    -0.15200
C594        C  0.19544150  0.17167273  0.58222632    -0.30300
H595        H  0.21547338  0.16231894  0.62704264     0.13900
H596        H  0.18830553  0.18719121  0.56926254     0.14400
C597        C  0.30826434  0.33065834  0.75543572    -0.15200
C598        C  0.29845831  0.34626691  0.77651219    -0.30300
H599        H  0.33330297  0.34050393  0.74934667     0.13900
H600        H  0.27326832  0.33589691  0.78230059     0.14400
C601        C  0.17735255  0.20002286  0.75804703    -0.15200
C602        C  0.16747351  0.20430439  0.78967015    -0.30300
H603        H  0.16343378  0.17779354  0.74401008     0.13900
H604        H  0.18160946  0.22639460  0.80389943     0.14400
C605        C  0.26083770  0.37365269  0.65701950    -0.15200
C606        C  0.24641701  0.38326895  0.63340141    -0.30300
H607        H  0.27298437  0.38854080  0.67979103     0.13900
H608        H  0.23394905  0.36859037  0.61064554     0.14400
C609        C  0.13844969  0.25496852  0.65973857    -0.15200
C610        C  0.11899915  0.25344014  0.63322729    -0.30300
H611        H  0.13057802  0.25377156  0.68694762     0.13900
H612        H  0.12723403  0.25681824  0.60593787     0.14400
O613        O  0.25108358  0.80398376  0.22587665    -0.84100
O614        O  0.24730284  0.82867469  0.16105609    -0.81100
C615        C  0.24157816  0.83105539  0.12878597     0.99400
O616        O  0.22833689  0.80648755  0.10956061    -0.81200
O617        O  0.27178625  0.78483074  0.10815254    -0.83800
C618        C  0.28820183  0.77291762  0.11931226     1.03900
O619        O  0.27994731  0.75515658  0.14648939    -0.76600
O620        O  0.28525157  0.79220066  0.20406948    -0.76800
C621        C  0.27937378  0.80980256  0.22310383     1.03900
O622        O  0.18864495  0.75262995  0.21559763    -0.84100
O623        O  0.18172250  0.78049803  0.15533445    -0.81100
C624        C  0.16539740  0.75630556  0.13635551     0.99400
O625        O  0.17810869  0.74171713  0.12302856    -0.81200
O626        O  0.22060573  0.72063889  0.11462025    -0.83800
C627        C  0.21498121  0.69963162  0.13798800     1.03900
O628        O  0.21981735  0.70657979  0.17049685    -0.76600
O629        O  0.22439171  0.73947175  0.23133991    -0.76700
C630        C  0.19741377  0.73737872  0.23534951     1.03800
Cr631      Cr  0.21826503  0.78979774  0.18766081     1.93700
Cr632      Cr  0.22523732  0.76373322  0.11731813     1.93200
Cr633      Cr  0.25096026  0.74990359  0.18667401     1.39100
O634        O  0.23130917  0.76739763  0.16388395    -1.21800
O635        O  0.18182670  0.93139863  0.20231470    -0.84100
O636        O  0.18577840  0.89461731  0.15159478    -0.81100
C637        C  0.16966867  0.89886820  0.12784005     0.99400
O638        O  0.18140399  0.92476797  0.11110823    -0.81200
O639        O  0.21778229  0.98929888  0.09924698    -0.83800
C640        C  0.19970524  0.50273344  0.13019156     1.03900
O641        O  0.20474794  0.50386229  0.16323085    -0.76600
O642        O  0.21467230  0.48602868  0.22998915    -0.76800
C643        C  0.18631331  0.95545139  0.21902399     1.03900
O644        O  0.24545728  0.95103295  0.22694609    -0.84100
O645        O  0.25208091  0.92095592  0.16929457    -0.81100
C646        C  0.25132109  0.91121266  0.13833586     0.99400
O647        O  0.23815253  0.91831146  0.11318492    -0.81200
O648        O  0.27468793  0.98412497  0.10580778    -0.83800
C649        C  0.27815168  0.50992806  0.11846396     1.03900
O650        O  0.26687627  0.52015349  0.14161875    -0.76600
O651        O  0.27533240  0.49541602  0.20458680    -0.76700
C652        C  0.27303620  0.97490329  0.22419046     1.03800
Cr653      Cr  0.21720891  0.92682660  0.18560802     1.93700
Cr654      Cr  0.22813737  0.95447838  0.11058237     1.93200
Cr655      Cr  0.23921092  0.49845162  0.18368343     1.39100
O656        O  0.22938967  0.95972360  0.15714642    -1.21800
O657        O  0.05966479  0.74479080  0.21618549    -0.84100
O658        O  0.09861497  0.78501226  0.16384061    -0.81100
C659        C  0.09509666  0.76712926  0.13822019     0.99400
O660        O  0.06840083  0.75140888  0.12325826    -0.81200
O661        O  0.00339589  0.72388203  0.11307956    -0.83800
C662        C  0.47725531  0.70310285  0.12303248     1.03900
O663        O  0.46604054  0.71380085  0.14558209    -0.76600
O664        O  0.49489076  0.71162935  0.20745783    -0.76800
C665        C  0.03544359  0.72794548  0.23488920     1.03900
O666        O  0.04491147  0.79189634  0.23768692    -0.84100
O667        O  0.07666090  0.82743911  0.17893611    -0.81100
C668        C  0.08633757  0.83506331  0.14749404     0.99400
O669        O  0.07606160  0.81428773  0.12301446    -0.81200
O670        O  0.01001727  0.78681398  0.11539049    -0.83800
C671        C  0.47848955  0.78059417  0.12931963     1.03900
O672        O  0.47674127  0.77503977  0.16224801    -0.76600
O673        O  0.49965649  0.77282395  0.22778954    -0.76700
C674        C  0.02292721  0.79843620  0.23486049     1.03800
Cr675      Cr  0.06734913  0.78565973  0.19710373     1.93700
Cr676      Cr  0.03883439  0.76885296  0.12224247     1.93200
Cr677      Cr  0.48737810  0.74468188  0.18462194     1.39100
O678        O  0.03382157  0.76614546  0.16903836    -1.21800
O679        O  0.19952896  0.57576605  0.07451436    -0.84100
O680        O  0.24198602  0.58120243  0.02278026    -0.81100
C681        C  0.25303294  0.58754478  0.49269641     0.99400
O682        O  0.24536472  0.60105257  0.46859929    -0.81200
O683        O  0.18032996  0.56067691  0.45476335    -0.83800
C684        C  0.15080952  0.54547666  0.46123290     1.03900
O685        O  0.13902243  0.55492989  0.48488853    -0.76600
O686        O  0.16023836  0.54613657  0.03904767    -0.76800
C687        C  0.17809952  0.54865054  0.06482430     1.03900
O688        O  0.21837361  0.64058438  0.06345197    -0.84100
O689        O  0.26411490  0.64733616  0.01745454    -0.81100
C690        C  0.25711340  0.66541493  0.49224080     0.99400
O691        O  0.23335244  0.65407081  0.47162823    -0.81200
O692        O  0.17043558  0.61434219  0.45218126    -0.83800
C693        C  0.15291076  0.62096420  0.47093669     1.03900
O694        O  0.15108374  0.61649488  0.50411059    -0.76600
O695        O  0.16730601  0.60622018  0.06583216    -0.76700
C696        C  0.19109584  0.63233301  0.07508050     1.03800
Cr697      Cr  0.22886514  0.61043081  0.04195588     1.93700
Cr698      Cr  0.20674131  0.60704668  0.46512159     1.93200
Cr699      Cr  0.16008920  0.58416724  0.01863205     1.39100
O700        O  0.20081417  0.60147713  0.00744460    -1.21800
O701        O  0.40955532  0.61640557  0.07482229    -0.84100
O702        O  0.41697550  0.66161225  0.02611356    -0.81100
C703        C  0.41435415  0.67248997  0.48825432     0.99400
O704        O  0.40356074  0.65565847  0.46074536    -0.81200
O705        O  0.44389861  0.63098070  0.44841993    -0.83800
C706        C  0.45636803  0.61378632  0.45369039     1.03900
O707        O  0.44248741  0.58899357  0.47256148    -0.76600
O708        O  0.44547878  0.61053089  0.04797294    -0.76800
C709        C  0.43842226  0.62479881  0.07070545     1.03900
O710        O  0.34817976  0.57482649  0.04623745    -0.84100
O711        O  0.35288819  0.62115106  0.00181148    -0.81100
C712        C  0.33509082  0.60291670  0.46965248     0.99400
O713        O  0.34952822  0.59410571  0.44900760    -0.81200
O714        O  0.38989540  0.57188030  0.43191182    -0.83800
C715        C  0.37892331  0.54452612  0.44512002     1.03900
O716        O  0.37803814  0.54019859  0.47846722    -0.76600
O717        O  0.37959296  0.55520600  0.05605617    -0.76700
C718        C  0.35288169  0.55378037  0.05981423     1.03800
Cr719      Cr  0.38313633  0.61754056  0.03491161     1.93700
Cr720      Cr  0.39663627  0.61237662  0.45108103     1.93200
Cr721      Cr  0.41242333  0.57660048  0.01690273     1.39100
O722        O  0.39890460  0.60280306  0.00297046    -1.21800
O723        O  0.35340647  0.77726687  0.04217601    -0.84100
O724        O  0.35489823  0.73840639  0.99095324    -0.79300
C725        C  0.32876806  0.74357773  0.47198216     0.99400
O726        O  0.34174446  0.76853937  0.45350553    -0.81200
O727        O  0.38601845  0.83000444  0.43539112    -0.83800
C728        C  0.38531616  0.85048999  0.45531264     1.03900
O729        O  0.39469742  0.85398092  0.48716103    -0.76600
O730        O  0.38751476  0.82709470  0.05513054    -0.76800
C731        C  0.36012473  0.80253783  0.05816500     1.03900
O732        O  0.41449745  0.79217557  0.06538017    -0.84100
O733        O  0.41923908  0.76002827  0.00724778    -0.81100
C734        C  0.40391911  0.74200214  0.47152487     0.99400
O735        O  0.39044053  0.75065069  0.44857898    -0.81200
O736        O  0.43420754  0.81163055  0.43315148    -0.83800
C737        C  0.45605497  0.83883573  0.44171356     1.03900
O738        O  0.45202473  0.85401602  0.46649824    -0.76600
O739        O  0.45093307  0.83426896  0.03903659    -0.76700
C740        C  0.44319826  0.81311125  0.06239893     1.03800
Cr741      Cr  0.38663801  0.76946871  0.02424586     1.93700
Cr742      Cr  0.38878134  0.79111324  0.44629936     1.93200
Cr743      Cr  0.41826141  0.84074155  0.01374793     1.39100
O744        O  0.39741131  0.79970813  0.49227655    -1.21800
O745        O  0.37550270  0.92028458  0.39929703    -0.84100
O746        O  0.41099240  0.92400904  0.34122745    -0.81100
C747        C  0.42130971  0.92810898  0.30989598     0.99400
O748        O  0.41286128  0.94168923  0.28689484    -0.81200
O749        O  0.34859898  0.90021691  0.27508795    -0.83800
C750        C  0.31962917  0.88341301  0.28351260     1.03900
O751        O  0.30783339  0.89214733  0.30763558    -0.76600
O752        O  0.33416649  0.88602871  0.36960600    -0.76800
C753        C  0.35505986  0.89192353  0.39296712     1.03900
O754        O  0.38760888  0.98238901  0.38444110    -0.84100
O755        O  0.43012004  0.98927176  0.33281458    -0.81100
C756        C  0.42509943  0.00621871  0.31123639     0.99400
O757        O  0.40029945  0.99397027  0.29209095    -0.81200
O758        O  0.33660874  0.95257884  0.27575940    -0.83800
C759        C  0.31800018  0.95678410  0.29556497     1.03900
O760        O  0.31680138  0.95153509  0.32865890    -0.76600
O761        O  0.33853625  0.94511551  0.39554013    -0.76700
C762        C  0.36217143  0.97240551  0.40172807     1.03800
Cr763      Cr  0.39865700  0.95304165  0.36212221     1.93700
Cr764      Cr  0.37403689  0.94671138  0.28586238     1.93200
Cr765      Cr  0.32734866  0.92024857  0.34936210     1.39100
O766        O  0.36651386  0.94033007  0.33214756    -1.21800
O767        O  0.09838305  0.98170885  0.37989367    -0.84100
O768        O  0.05780298  0.98151107  0.33054142    -0.81100
C769        C  0.07619174  0.99327750  0.30421285     0.99400
O770        O  0.08427381  0.97675309  0.28643153    -0.81200
O771        O  0.10388822  0.93380683  0.27696265    -0.83800
C772        C  0.13022756  0.94568151  0.29361074     1.03900
O773        O  0.13100363  0.94568448  0.32707648    -0.76600
O774        O  0.11302357  0.94746957  0.39555391    -0.76800
C775        C  0.11679765  0.97521020  0.39694171     1.03900
O776        O  0.05048537  0.92164124  0.40744610    -0.84100
O777        O  0.01147022  0.91828916  0.35317107    -0.81100
C778        C  0.00063088  0.91738916  0.32251657     0.99400
O779        O  0.01898052  0.92645785  0.29581539    -0.81200
O780        O  0.04026020  0.88301618  0.29109933    -0.83800
C781        C  0.05531620  0.86878333  0.29858768     1.03900
O782        O  0.07973175  0.88164662  0.31845312    -0.76600
O783        O  0.05648118  0.88442079  0.38344939    -0.76700
C784        C  0.04261978  0.89273587  0.40536338     1.03800
Cr785      Cr  0.05551586  0.94948729  0.36576520     1.93700
Cr786      Cr  0.06231961  0.93001020  0.29096495     1.93200
Cr787      Cr  0.09341519  0.91588036  0.35510977     1.39100
O788        O  0.07054074  0.93188621  0.33710609    -1.21800
O789        O  0.02354211  0.61637845  0.37997467    -0.84100
O790        O  0.01660831  0.56924774  0.33633163    -0.81100
C791        C  0.00535539  0.57217499  0.30691508     0.99400
O792        O  0.02231239  0.59428185  0.28558955    -0.81200
O793        O  0.06909813  0.65459671  0.26660436    -0.83800
C794        C  0.06043735  0.67307291  0.27920324     1.03900
O795        O  0.06027237  0.67697444  0.31239465    -0.76600
O796        O  0.06141814  0.66579715  0.38521527    -0.76800
C797        C  0.03376201  0.64352850  0.39281659     1.03900
O798        O  0.08392921  0.62608628  0.40475986    -0.84100
O799        O  0.07919185  0.58216708  0.35704505    -0.81100
C800        C  0.07671557  0.56811897  0.32839796     0.99400
O801        O  0.06908576  0.57669537  0.29997018    -0.81200
O802        O  0.11684134  0.63906309  0.28606813    -0.83800
C803        C  0.13276121  0.66892482  0.28801303     1.03900
O804        O  0.12189613  0.68379840  0.30492573    -0.76600
O805        O  0.12077674  0.66509195  0.37370612    -0.76700
C806        C  0.11294882  0.64593624  0.39945487     1.03800
Cr807      Cr  0.05215437  0.60062977  0.36687176     1.93700
Cr808      Cr  0.06951112  0.61715326  0.28812578     1.93200
Cr809      Cr  0.08953959  0.66992650  0.34356872     1.39100
O810        O  0.07000792  0.62916243  0.33272313    -1.21800
C811        C  0.06939332  0.51836895  0.30304772    -0.15200
C812        C  0.07861956  0.53907290  0.32995144    -0.30300
H813        H  0.06600693  0.52478290  0.27631411     0.13900
H814        H  0.08254539  0.53188049  0.35611297     0.14400
C815        C  0.44419225  0.53858889  0.30753161    -0.15200
C816        C  0.47134059  0.55017357  0.28906828    -0.30300
H817        H  0.44306077  0.55210135  0.32971755     0.13900
H818        H  0.47264478  0.53625533  0.26740098     0.14400
C819        C  0.44653948  0.92087635  0.30143420    -0.15200
C820        C  0.45797748  0.90965889  0.32681174    -0.30300
H821        H  0.45959984  0.93046797  0.27686514     0.13900
H822        H  0.44517329  0.90086757  0.35168489     0.14400
C823        C  0.37563033  0.87254682  0.44071718    -0.15200
C824        C  0.35723676  0.86627302  0.41158788    -0.30300
H825        H  0.38536924  0.89550016  0.45350399     0.13900
H826        H  0.34599049  0.84287098  0.39968223     0.14400
C827        C  0.48601435  0.85322205  0.42075785    -0.15200
C828        C  0.01571704  0.86867321  0.42662303    -0.30300
H829        H  0.48540550  0.84319240  0.39488420     0.13900
H830        H  0.00709885  0.84373193  0.42155978     0.14400
C831        C  0.48625048  0.61993025  0.43657378    -0.15200
C832        C  0.01341707  0.64801985  0.41843557    -0.30300
H833        H  0.49378735  0.60276853  0.44257200     0.13900
H834        H  0.00969717  0.66816962  0.41579629     0.14400
C835        C  0.36106417  0.99286175  0.42986376    -0.15200
C836        C  0.37097293  0.51927136  0.41939053    -0.30300
H837        H  0.34622779  0.98266661  0.45315566     0.13900
H838        H  0.37829057  0.52725773  0.39217704     0.14400
C839        C  0.41046096  0.71653605  0.46294137    -0.15200
C840        C  0.42283030  0.70577217  0.48767508    -0.30300
H841        H  0.39976276  0.70302852  0.43891225     0.13900
H842        H  0.43299712  0.71915486  0.51191799     0.14400
C843        C  0.13159995  0.63068359  0.45356268    -0.15200
C844        C  0.13785092  0.64492293  0.42151589    -0.30300
H845        H  0.10901466  0.62372348  0.46631001     0.13900
H846        H  0.16109298  0.65346141  0.40965594     0.14400
C847        C  0.14177752  0.00036175  0.41939155    -0.15200
C848        C  0.12832877  0.51795030  0.43948206    -0.30300
H849        H  0.16236238  0.99882988  0.42811253     0.13900
H850        H  0.10373540  0.51264345  0.43981636     0.14400
C851        C  0.28068939  0.69926963  0.49442797    -0.15200
C852        C  0.29532887  0.71836691  0.46658628    -0.30300
H853        H  0.30417016  0.70444275  0.01820154     0.13900
H854        H  0.28555079  0.71220163  0.43990749     0.14400
C855        C  0.30207726  0.59543709  0.46254189    -0.15200
C856        C  0.28080782  0.58303084  0.48907234    -0.30300
H857        H  0.29683649  0.60441395  0.43842865     0.13900
H858        H  0.29148364  0.57619815  0.01658235     0.14400
C859        C  0.46724478  0.81071233  0.08420114    -0.15200
C860        C  0.45872806  0.79268185  0.11374694    -0.30300
H861        H  0.49118774  0.82064096  0.07377278     0.13900
H862        H  0.43539933  0.78437331  0.12529752     0.14400
C863        C  0.46341843  0.65331548  0.08935110    -0.15200
C864        C  0.45516084  0.67145946  0.10825343    -0.30300
H865        H  0.48831763  0.66119763  0.08452098     0.13900
H866        H  0.94462182  0.65361641  0.13299096     0.14400
C867        C  0.04684736  0.83817797  0.28203037    -0.15200
C868        C  0.02390541  0.82382003  0.25719093    -0.30300
H869        H  0.06247167  0.82873694  0.28816312     0.13900
H870        H  0.00795785  0.83280810  0.25084682     0.14400
C871        C  0.05408122  0.69225974  0.25378897    -0.15200
C872        C  0.03651614  0.70571368  0.26086906    -0.30300
H873        H  0.06491785  0.69577479  0.22771711     0.13900
H874        H  0.02343093  0.70070135  0.28560118     0.14400
C875        C  0.18801435  0.52323331  0.11554716    -0.15200
C876        C  0.17625279  0.52056955  0.08251249    -0.30300
H877        H  0.19279592  0.54374866  0.13137458     0.13900
H878        H  0.16965218  0.49952482  0.06684859     0.14400
C879        C  0.30577714  0.53357063  0.09775585    -0.15200
C880        C  0.32709843  0.52812949  0.08118876    -0.30300
H881        H  0.31810738  0.06147165  0.09581839     0.13900
H882        H  0.32594687  0.50534382  0.08393574     0.14400
C883        C  0.16013220  0.95746797  0.27369882    -0.15200
C884        C  0.15928209  0.95287360  0.23862914    -0.30300
H885        H  0.18249789  0.96693857  0.28817471     0.13900
H886        H  0.13653472  0.94123008  0.22478364     0.14400
C887        C  0.29940645  0.97743479  0.24646717    -0.15200
C888        C  0.29469893  0.96415716  0.27895372    -0.30300
H889        H  0.32281659  0.98797470  0.23443257     0.13900
H890        H  0.27184515  0.95531335  0.29189305     0.14400
C891        C  0.13735343  0.87279786  0.11985877    -0.15200
C892        C  0.11328583  0.86739975  0.14156179    -0.30300
H893        H  0.13505698  0.85427824  0.10212497     0.13900
H894        H  0.11722755  0.88517494  0.16134571     0.14400
C895        C  0.33581411  0.80282475  0.08118882    -0.15200
C896        C  0.31545574  0.77640736  0.09888738    -0.30300
H897        H  0.33451368  0.82437079  0.08357990     0.13900
H898        H  0.31893924  0.75600063  0.09856291     0.14400
C899        C  0.20646286  0.66763297  0.12617282    -0.15200
C900        C  0.18721643  0.65434466  0.09810100    -0.30300
H901        H  0.22018403  0.65732084  0.13683688     0.13900
H902        H  0.17251439  0.66384185  0.08827236     0.14400
C903        C  0.30509853  0.83754935  0.24216593    -0.15200
C904        C  0.29738830  0.85389831  0.26480490    -0.30300
H905        H  0.32984899  0.84510554  0.23683263     0.13900
H906        H  0.27239916  0.84510200  0.27041160     0.14400
C907        C  0.17602977  0.71891330  0.26448812    -0.15200
C908        C  0.16248570  0.68717228  0.26732413    -0.30300
H909        H  0.16622812  0.73105334  0.27937286     0.13900
H910        H  0.17059223  0.67450687  0.25067921     0.14400
C911        C  0.24574679  0.86158335  0.11524737    -0.15200
C912        C  0.26224406  0.88809508  0.13440787    -0.30300
H913        H  0.22974386  0.86069180  0.09433289     0.13900
H914        H  0.27771600  0.88813113  0.15552615     0.14400
C915        C  0.13162433  0.74630247  0.13004542    -0.15200
C916        C  0.12405662  0.76894932  0.12427212    -0.30300
H917        H  0.11346980  0.72221211  0.13666273     0.13900
H918        H  0.14329810  0.79293371  0.11895792     0.14400
O919        O  0.25778212  0.79463500  0.73806929    -0.84100
O920        O  0.25492277  0.83572420  0.68917881    -0.81100
C921        C  0.24985644  0.84633777  0.66076738     0.99400
O922        O  0.23556037  0.82788565  0.63483759    -0.81200
O923        O  0.27629204  0.80784229  0.61034235    -0.83800
C924        C  0.29399515  0.79574316  0.61241399     1.03900
O925        O  0.28844673  0.77395006  0.63489307    -0.76600
O926        O  0.29301712  0.79498663  0.70349242    -0.76800
C927        C  0.28640033  0.80696175  0.72928195     1.03900
O928        O  0.19543512  0.74855775  0.71937153    -0.84100
O929        O  0.18959110  0.79130101  0.67784190    -0.81100
C930        C  0.17188051  0.77088423  0.65558053     0.99400
O931        O  0.18377586  0.76174142  0.63205438    -0.81200
O932        O  0.22548619  0.74459334  0.60366203    -0.83800
C933        C  0.22155904  0.71920645  0.61785769     1.03900
O934        O  0.22798740  0.71826564  0.65032914    -0.76600
O935        O  0.23165216  0.73381457  0.72078898    -0.76700
C936        C  0.20403647  0.72910102  0.72880422     1.03800
Cr937      Cr  0.22550601  0.79165599  0.70350954     1.93700
Cr938      Cr  0.23068144  0.78495348  0.62356954     1.93200
Cr939      Cr  0.25901979  0.75684001  0.67728095     1.39100
O940        O  0.23824064  0.77737401  0.66770544    -1.21800
O941        O  0.18398992  0.94787030  0.72210963    -0.84100
O942        O  0.17846587  0.90719293  0.66995973    -0.81100
C943        C  0.16010098  0.91192627  0.65034358     0.99400
O944        O  0.17100985  0.93636555  0.63085252    -0.81200
O945        O  0.21060380  0.99947372  0.61176940    -0.83800
C946        C  0.20540616  0.50829156  0.63797964     1.03900
O947        O  0.21207809  0.50886649  0.67052693    -0.76600
O948        O  0.22159978  0.48677463  0.73468362    -0.76800
C949        C  0.19177239  0.97406209  0.73635096     1.03900
O950        O  0.24712964  0.96263241  0.73625407    -0.84100
O951        O  0.24441242  0.92806015  0.67654294    -0.81100
C952        C  0.23856479  0.91675402  0.64554365     0.99400
O953        O  0.22391461  0.92474109  0.62340922    -0.81200
O954        O  0.26399563  0.98875635  0.61065229    -0.83800
C955        C  0.28062675  0.51142226  0.61951200     1.03900
O956        O  0.27232559  0.52188918  0.64547143    -0.76600
O957        O  0.28115855  0.49484684  0.70656931    -0.76700
C958        C  0.27506724  0.98457912  0.73058642     1.03800
Cr959      Cr  0.21452199  0.93897103  0.69886652     1.93700
Cr960      Cr  0.21793171  0.96293932  0.62263791     1.93200
Cr961      Cr  0.24548785  0.50017943  0.68800082     1.39100
O962        O  0.22550772  0.97093086  0.66877724    -1.21800
O963        O  0.04871283  0.75377515  0.73438695    -0.84100
O964        O  0.08245018  0.75887093  0.67443692    -0.81100
C965        C  0.09105265  0.76189214  0.64246619     0.99400
O966        O  0.07784502  0.77028865  0.61910418    -0.81200
O967        O  0.01371025  0.72428065  0.61662039    -0.83800
C968        C  0.48184321  0.70092690  0.61878111     1.03900
O969        O  0.47319139  0.71368325  0.64214334    -0.76600
O970        O  0.50533092  0.71533397  0.70293501    -0.76800
C971        C  0.02750291  0.72502613  0.73093428     1.03900
O972        O  0.05590084  0.81486841  0.71898341    -0.84100
O973        O  0.09422087  0.82213258  0.66276938    -0.81100
C974        C  0.08701552  0.83454363  0.63726152     0.99400
O975        O  0.06129410  0.81881637  0.62033063    -0.81200
O976        O  0.99782550  0.77486655  0.61283269    -0.83800
C977        C  0.48440921  0.77841800  0.62117027     1.03900
O978        O  0.48737259  0.77760746  0.65443295    -0.76600
O979        O  0.51624264  0.77946531  0.71905464    -0.76700
C980        C  0.03046180  0.80518409  0.73608139     1.03800
Cr981      Cr  0.06766845  0.78612012  0.69550480     1.93700
Cr982      Cr  0.03711152  0.77162559  0.62095405     1.93200
Cr983      Cr  0.49838820  0.74779561  0.67806233     1.39100
O984        O  0.03340929  0.76960999  0.66809055    -1.21800
O985        O  0.20353346  0.58051366  0.57971788    -0.84100
O986        O  0.23983211  0.58172759  0.52264988    -0.81100
C987        C  0.25685979  0.58773093  0.99385491     0.99400
O988        O  0.25021439  0.60109342  0.96880372    -0.81200
O989        O  0.18558985  0.56297327  0.94895023    -0.83800
C990        C  0.15563331  0.55008706  0.95118905     1.03900
O991        O  0.14328285  0.55961586  0.97379114    -0.76600
O992        O  0.16130409  0.54830788  0.54961072    -0.76800
C993        C  0.18107364  0.55283543  0.57384721     1.03900
O994        O  0.22050281  0.64424388  0.56262202    -0.84100
O995        O  0.26146350  0.64743025  0.51290844    -0.81100
C996        C  0.26394546  0.66530617  0.99318688     0.99400
O997        O  0.24170828  0.65523641  0.97054647    -0.81200
O998        O  0.17941128  0.61864557  0.94751539    -0.83800
C999        C  0.16154290  0.62578264  0.96485923     1.03900
O1000       O  0.15735487  0.62027415  0.99776865    -0.76600
O1001       O  0.16999061  0.61056295  0.57216936    -0.76700
C1002       C  0.19483539  0.63733451  0.57771776     1.03800
Cr1003     Cr  0.22894151  0.61244519  0.54224535     1.93700
Cr1004     Cr  0.21322930  0.60876412  0.96238021     1.93200
Cr1005     Cr  0.15825682  0.58377740  0.52687380     1.39100
O1006       O  0.19775899  0.60114081  0.51118454    -1.21800
O1007       O  0.40882421  0.61738216  0.56810053    -0.84100
O1008       O  0.41418230  0.66016394  0.51771081    -0.81100
C1009       C  0.41892735  0.67500776  0.99679479     0.99400
O1010       O  0.40924662  0.65890780  0.96853077    -0.81200
O1011       O  0.44926641  0.63374926  0.95751244    -0.83800
C1012       C  0.46138132  0.61627462  0.96273668     1.03900
O1013       O  0.44694314  0.59108314  0.98091370    -0.76600
O1014       O  0.44299804  0.60954149  0.53978693    -0.76800
C1015       C  0.43722271  0.62425461  0.56329280     1.03900
O1016       O  0.34628388  0.57440611  0.54262445    -0.84100
O1017       O  0.34884730  0.61903413  0.49697142    -0.81100
C1018       C  0.33998845  0.60514876  0.97419604     0.99400
O1019       O  0.35527392  0.59709143  0.95397021    -0.81200
O1020       O  0.39578787  0.57481536  0.93835461    -0.83800
C1021       C  0.38404092  0.54717292  0.95121695     1.03900
O1022       O  0.38207256  0.54242320  0.98449592    -0.76600
O1023       O  0.37774418  0.55449943  0.55019565    -0.76700
C1024       C  0.35144511  0.55348049  0.55564254     1.03800
Cr1025     Cr  0.38067723  0.61662876  0.52881823     1.93700
Cr1026     Cr  0.40215832  0.61532074  0.95803304     1.93200
Cr1027     Cr  0.40914095  0.57511547  0.50980128     1.39100
O1028       O  0.39505183  0.60091578  0.49631108    -1.21800
O1029       O  0.35522748  0.78307411  0.54460792    -0.84100
O1030       O  0.34500217  0.73841830  0.49458366    -0.79300
C1031       C  0.33789491  0.74280189  0.96878139     0.99400
O1032       O  0.34999103  0.76814760  0.95074901    -0.81200
O1033       O  0.39018589  0.83242849  0.93687315    -0.83800
C1034       C  0.38414638  0.84990860  0.95639920     1.03900
O1035       O  0.38856098  0.85110665  0.98946736    -0.76600
O1036       O  0.39604873  0.83076070  0.55409754    -0.76800
C1037       C  0.36753486  0.80907299  0.56089432     1.03900
O1038       O  0.41565104  0.78947642  0.56101962    -0.84100
O1039       O  0.40870026  0.75254604  0.50282124    -0.81100
C1040       C  0.41672314  0.74957554  0.97610505     0.99400
O1041       O  0.40479749  0.75843895  0.95138043    -0.81200
O1042       O  0.44455314  0.82286281  0.94170248    -0.83800
C1043       C  0.46115089  0.85116832  0.95215206     1.03900
O1044       O  0.45091811  0.86209981  0.97575729    -0.76600
O1045       O  0.45254799  0.82726713  0.52971095    -0.76700
C1046       C  0.44469761  0.80741580  0.55452273     1.03800
Cr1047     Cr  0.38226624  0.76828568  0.52335344     1.93700
Cr1048     Cr  0.39759998  0.79602987  0.94855975     1.93200
Cr1049     Cr  0.42196662  0.83868000  0.50830868     1.39100
O1050       O  0.40060916  0.80235888  0.99515702    -1.21800
O1051       O  0.37893092  0.92148069  0.89736397    -0.84100
O1052       O  0.41206349  0.92493521  0.83725135    -0.81100
C1053       C  0.42254404  0.93021549  0.80598424     0.99400
O1054       O  0.41394416  0.94440821  0.78400419    -0.81200
O1055       O  0.35005232  0.90183019  0.77464417    -0.83800
C1056       C  0.32166429  0.88398604  0.78453213     1.03900
O1057       O  0.30937084  0.89319718  0.80777269    -0.76600
O1058       O  0.33619869  0.88783958  0.86916135    -0.76800
C1059       C  0.35762353  0.89326817  0.89159785     1.03900
O1060       O  0.39157526  0.98413551  0.88314810    -0.84100
O1061       O  0.43142046  0.99059996  0.82950494    -0.81100
C1062       C  0.42496592  0.00775060  0.80983930     0.99400
O1063       O  0.39963792  0.99544495  0.79162524    -0.81200
O1064       O  0.33641888  0.95362214  0.77537575    -0.83800
C1065       C  0.31931727  0.95915607  0.79612903     1.03900
O1066       O  0.31878593  0.95363057  0.82908618    -0.76600
O1067       O  0.34217712  0.94807499  0.89508008    -0.76700
C1068       C  0.36648635  0.97520099  0.90063157     1.03800
Cr1069     Cr  0.40107663  0.95430373  0.85968322     1.93700
Cr1070     Cr  0.37447802  0.94838267  0.78465950     1.93200
Cr1071     Cr  0.32944908  0.92217816  0.84923773     1.39100
O1072       O  0.36811072  0.94190813  0.83103290    -1.21800
O1073       O  0.09358383  0.98762109  0.88033587    -0.84100
O1074       O  0.04908785  0.98377871  0.83045159    -0.81100
C1075       C  0.06576016  0.99522360  0.80320482     0.99400
O1076       O  0.07896640  0.98138653  0.78926856    -0.81200
O1077       O  0.10352678  0.94139879  0.78462112    -0.83800
C1078       C  0.12717173  0.94741062  0.80448875     1.03900
O1079       O  0.12463669  0.94373019  0.83777418    -0.76600
O1080       O  0.10299897  0.95088569  0.90204403    -0.76800
C1081       C  0.10930799  0.97950362  0.90041338     1.03900
O1082       O  0.04547271  0.93125299  0.91230800    -0.84100
O1083       O  0.00640278  0.92261030  0.85524887    -0.81100
C1084       C  0.99636740  0.91933119  0.82371287     0.99400
O1085       O  0.01514500  0.92713047  0.79733383    -0.81200
O1086       O  0.04042112  0.88725613  0.79182613    -0.83800
C1087       C  0.05387884  0.87239336  0.80311939     1.03900
O1088       O  0.07284833  0.88270423  0.82911228    -0.76600
O1089       O  0.04472038  0.88959457  0.89107794    -0.76700
C1090       C  0.03467046  0.90191018  0.91323604     1.03800
Cr1091     Cr  0.04999562  0.95499448  0.86747282     1.93700
Cr1092     Cr  0.05992535  0.93433028  0.79443944     1.93200
Cr1093     Cr  0.08448996  0.91779799  0.86358718     1.39100
O1094       O  0.06514721  0.93575061  0.84121198    -1.21800
O1095       O  0.04183811  0.61847650  0.89637639    -0.84100
O1096       O  0.00862843  0.58916411  0.83535592    -0.81100
C1097       C  0.00200064  0.57984962  0.80366580     0.99400
O1098       O  0.02385230  0.59029115  0.78038294    -0.81200
O1099       O  0.04972572  0.65576855  0.77602278    -0.83800
C1100       C  0.06268824  0.68385689  0.78752395     1.03900
O1101       O  0.08367560  0.69324760  0.81164189    -0.76600
O1102       O  0.05300927  0.66394574  0.87312836    -0.76800
C1103       C  0.03732421  0.64189964  0.89492116     1.03900
O1104       O  0.08992251  0.60405554  0.87456778    -0.84100
O1105       O  0.05206244  0.56748929  0.82056385    -0.81100
C1106       C  0.07315572  0.57290974  0.79774265     0.99400
O1107       O  0.08816197  0.59992853  0.78324907    -0.81200
O1108       O  0.11339549  0.66487873  0.77302779    -0.83800
C1109       C  0.13678973  0.68057534  0.79383236     1.03900
O1110       O  0.13282183  0.67917353  0.82703540    -0.76600
O1111       O  0.10571277  0.65276101  0.89172032    -0.76700
C1112       C  0.10862331  0.62825019  0.89199902     1.03800
Cr1113     Cr  0.04970700  0.59749184  0.85492438     1.93700
Cr1114     Cr  0.06894569  0.62809927  0.78159744     1.93200
Cr1115     Cr  0.09205363  0.66932594  0.84949945     1.39100
O1116       O  0.07046634  0.63188920  0.82844501    -1.21800
C1117       C  0.05464649  0.51707148  0.78670960    -0.15200
C1118       C  0.07942114  0.54683861  0.78905663    -0.30300
H1119       H  0.03089454  0.51409985  0.78556963     0.13900
H1120       H  0.10355677  0.55107125  0.79142413     0.14400
C1121       C  0.44273155  0.53541130  0.81909628    -0.15200
C1122       C  0.46669442  0.55006523  0.79607348    -0.30300
H1123       H  0.44466106  0.54608001  0.84489535     0.13900
H1124       H  0.46563919  0.53863434  0.77101521     0.14400
C1125       C  0.44821755  0.92390028  0.79680160    -0.15200
C1126       C  0.45998387  0.91264592  0.82172964    -0.30300
H1127       H  0.46105805  0.93387978  0.77219903     0.13900
H1128       H  0.44728700  0.90328414  0.84656698     0.14400
C1129       C  0.37501077  0.87206905  0.94066526    -0.15200
C1130       C  0.35912467  0.86702314  0.90985492    -0.30300
H1131       H  0.38304980  0.89432265  0.95452178     0.13900
H1132       H  0.34908852  0.84417591  0.89680578     0.14400
C1133       C  0.49240720  0.87316962  0.93598135    -0.15200
C1134       C  0.00916820  0.88348965  0.93889825    -0.30300
H1135       H  0.50218280  0.89818520  0.94178995     0.13900
H1136       H  0.00563909  0.89640666  0.96011541     0.14400
C1137       C  0.49130677  0.62259115  0.94580197    -0.15200
C1138       C  0.01305631  0.64301624  0.91792729    -0.30300
H1139       H  0.49968737  0.60625999  0.95276535     0.13900
H1140       H  0.00642680  0.66091768  0.91247596     0.14400
C1141       C  0.36686305  0.99693571  0.92821548    -0.15200
C1142       C  0.37651043  0.52180479  0.92568337    -0.30300
H1143       H  0.35297366  0.98767533  0.95230052     0.13900
H1144       H  0.38653589  0.52965308  0.89927283     0.14400
C1145       C  0.42256716  0.72303261  0.96976164    -0.15200
C1146       C  0.42875359  0.70892353  0.99710161    -0.30300
H1147       H  0.41541659  0.71126257  0.94418760     0.13900
H1148       H  0.43536728  0.72056838  0.02279515     0.14400
C1149       C  0.14221147  0.63657740  0.94526813    -0.15200
C1150       C  0.13406611  0.62696869  0.91162342    -0.30300
H1151       H  0.13084690  0.64761900  0.95935323     0.13900
H1152       H  0.14316887  0.61300886  0.89924277     0.14400
C1153       C  0.13225483  0.00255798  0.92514772    -0.15200
C1154       C  0.13349247  0.52581082  0.92593518    -0.30300
H1155       H  0.12888173  0.99699331  0.95337483     0.13900
H1156       H  0.11106542  0.52535956  0.92168935     0.14400
C1157       C  0.29124692  0.69773649  0.99307255    -0.15200
C1158       C  0.30443218  0.71693400  0.96472115    -0.30300
H1159       H  0.29173086  0.70661403  0.52052313     0.13900
H1160       H  0.29250488  0.71184640  0.93909739     0.14400
C1161       C  0.30695236  0.59674157  0.96620357    -0.15200
C1162       C  0.28527654  0.58423600  0.99230388    -0.30300
H1163       H  0.30166483  0.60461070  0.94128693     0.13900
H1164       H  0.28713004  0.57409430  0.51253998     0.14400
C1165       C  0.46905830  0.80361438  0.57409835    -0.15200
C1166       C  0.46333767  0.78927758  0.60604122    -0.30300
H1167       H  0.49147586  0.81079033  0.56081415     0.13900
H1168       H  0.44192753  0.78391435  0.62052591     0.14400
C1169       C  0.46356291  0.65138526  0.58267210    -0.15200
C1170       C  0.45758644  0.66937131  0.60497128    -0.30300
H1171       H  0.48793434  0.65875516  0.57551901     0.13900
H1172       H  0.93858673  0.66621516  0.61726470     0.14400
C1173       C  0.05089633  0.84460760  0.78383289    -0.15200
C1174       C  0.02745859  0.82709996  0.76072486    -0.30300
H1175       H  0.07036609  0.83975013  0.78698513     0.13900
H1176       H  0.00672049  0.83000263  0.75859123     0.14400
C1177       C  0.05528555  0.70735082  0.77193899    -0.15200
C1178       C  0.03046520  0.69996475  0.75018960    -0.30300
H1179       H  0.07177490  0.73208744  0.77801330     0.13900
H1180       H  0.01343470  0.67529411  0.74453921     0.14400
C1181       C  0.19476290  0.53007131  0.62478591    -0.15200
C1182       C  0.17985428  0.52586596  0.59339750    -0.30300
H1183       H  0.20279198  0.55202894  0.63925341     0.13900
H1184       H  0.17019168  0.50331187  0.57975779     0.14400
C1185       C  0.30726097  0.53468917  0.59748160    -0.15200
C1186       C  0.32670559  0.52835233  0.57833887    -0.30300
H1187       H  0.31181390  0.06369659  0.59500609     0.13900
H1188       H  0.32484175  0.50519230  0.57996278     0.14400
C1189       C  0.15774636  0.95601927  0.78809155    -0.15200
C1190       C  0.16879536  0.97554619  0.76002691    -0.30300
H1191       H  0.16998074  0.94364846  0.79721832     0.13900
H1192       H  0.15762141  0.98909141  0.75153061     0.14400
C1193       C  0.30175501  0.98450494  0.75014064    -0.15200
C1194       C  0.29697311  0.96878167  0.78128139    -0.30300
H1195       H  0.32473367  0.99471900  0.73716873     0.13900
H1196       H  0.27456540  0.96031281  0.79511185     0.14400
C1197       C  0.12615322  0.88835182  0.65267832    -0.15200
C1198       C  0.11046469  0.86738381  0.62684584    -0.30300
H1199       H  0.11723485  0.88181996  0.67967029     0.13900
H1200       H  0.11898290  0.87221196  0.59965165     0.14400
C1201       C  0.34869909  0.81227630  0.58981106    -0.15200
C1202       C  0.31790340  0.80334866  0.58416859    -0.30300
H1203       H  0.35898918  0.81875625  0.61625077     0.13900
H1204       H  0.30881440  0.79880886  0.55707975     0.14400
C1205       C  0.21340186  0.69213859  0.59413578    -0.15200
C1206       C  0.19524849  0.66112786  0.60245057    -0.30300
H1207       H  0.22385773  0.69847372  0.56776998     0.13900
H1208       H  0.18222324  0.65365650  0.62727362     0.14400
C1209       C  0.31061279  0.83680758  0.74677347    -0.15200
C1210       C  0.30108749  0.85230478  0.76871224    -0.30300
H1211       H  0.33545931  0.84737570  0.73938000     0.13900
H1212       H  0.27604814  0.84124190  0.77554339     0.14400
C1213       C  0.18072701  0.70077477  0.74908142    -0.15200
C1214       C  0.16828048  0.70436352  0.77937338    -0.30300
H1215       H  0.16991620  0.67784985  0.73612939     0.13900
H1216       H  0.18027030  0.72725200  0.79250963     0.14400
C1217       C  0.25692284  0.87947034  0.66073231    -0.15200
C1218       C  0.24444061  0.89066600  0.63659510    -0.30300
H1219       H  0.26770060  0.89296209  0.68475805     0.13900
H1220       H  0.23339317  0.87723596  0.61263326     0.14400
C1221       C  0.13763985  0.75827622  0.65921797    -0.15200
C1222       C  0.11942539  0.75968762  0.63313954    -0.30300
H1223       H  0.12922441  0.75477955  0.68646082     0.13900
H1224       H  0.12845798  0.76532826  0.60616208     0.14400
O1225       O  0.75207115  0.29842698  0.23157310    -0.84100
O1226       O  0.74497907  0.32851303  0.17142433    -0.81100
C1227       C  0.73768343  0.33309263  0.14044015     0.99400
O1228       O  0.72338394  0.31005775  0.11890835    -0.81200
O1229       O  0.76446179  0.28863510  0.09921451    -0.83800
C1230       C  0.78717316  0.28398731  0.10730185     1.03900
O1231       O  0.78723992  0.27038420  0.13629073    -0.76600
O1232       O  0.78864194  0.29686995  0.20111265    -0.76800
C1233       C  0.78099737  0.30929904  0.22545685     1.03900
O1234       O  0.69225431  0.24607859  0.21776770    -0.84100
O1235       O  0.68086309  0.28024935  0.16768775    -0.81100
C1236       C  0.66271047  0.25560112  0.15086276     0.99400
O1237       O  0.67433180  0.24308799  0.13148468    -0.81200
O1238       O  0.71572298  0.22438841  0.10814383    -0.83800
C1239       C  0.71982820  0.20497833  0.12678463     1.03900
O1240       O  0.73225229  0.21221231  0.15732912    -0.76600
O1241       O  0.73079977  0.23458077  0.22343614    -0.76700
C1242       C  0.70280550  0.22920146  0.23102765     1.03800
Cr1243     Cr  0.71892022  0.28694996  0.19444036     1.93700
Cr1244     Cr  0.72038834  0.26682492  0.11816460     1.93200
Cr1245     Cr  0.75787302  0.25490185  0.17875246     1.39100
O1246       O  0.73259476  0.26917082  0.16333764    -1.21800
O1247       O  0.69070223  0.44785866  0.22547973    -0.84100
O1248       O  0.68663048  0.40387493  0.17793034    -0.81100
C1249       C  0.66838793  0.40671362  0.15614584     0.99400
O1250       O  0.67934593  0.42991086  0.13485094    -0.81200
O1251       O  0.71733853  0.49268408  0.11519588    -0.83800
C1252       C  0.70548332  0.00621194  0.13564997     1.03900
O1253       O  0.71237028  0.00895669  0.16838056    -0.76600
O1254       O  0.72402580  0.99265330  0.23538356    -0.76800
C1255       C  0.69957629  0.47393748  0.24073701     1.03900
O1256       O  0.75422498  0.46408714  0.24221814    -0.84100
O1257       O  0.75250688  0.42625755  0.18751157    -0.81100
C1258       C  0.74847394  0.41391051  0.15729714     0.99400
O1259       O  0.73426591  0.42026001  0.13269592    -0.81200
O1260       O  0.77274772  0.48442977  0.11609372    -0.83800
C1261       C  0.78140451  0.00916183  0.12078154     1.03900
O1262       O  0.77233655  0.02137099  0.14403402    -0.76600
O1263       O  0.78403223  0.99998242  0.20695189    -0.76700
C1264       C  0.78243364  0.48476337  0.23511368     1.03800
Cr1265     Cr  0.72183079  0.43764954  0.20594561     1.93700
Cr1266     Cr  0.72647714  0.45756032  0.12796013     1.93200
Cr1267     Cr  0.74693580  0.00284514  0.18791717     1.39100
O1268       O  0.73317105  0.46765511  0.17367317    -1.21800
O1269       O  0.54575860  0.25226306  0.23555907    -0.84100
O1270       O  0.57976180  0.25488237  0.17547959    -0.81100
C1271       C  0.58737373  0.25699350  0.14307285     0.99400
O1272       O  0.57583466  0.26767804  0.12025352    -0.81200
O1273       O  0.51171173  0.22479738  0.11526790    -0.83800
C1274       C  0.97897829  0.19573922  0.14029988     1.03900
O1275       O  0.97595750  0.19832470  0.17319888    -0.76600
O1276       O  0.99712184  0.22160037  0.24068767    -0.76800
C1277       C  0.52539665  0.22349473  0.23103859     1.03900
O1278       O  0.55573032  0.31389628  0.21910284    -0.84100
O1279       O  0.59492420  0.31853280  0.16415650    -0.81100
C1280       C  0.58944564  0.33309879  0.13969422     0.99400
O1281       O  0.56358048  0.31941068  0.12248827    -0.81200
O1282       O  0.49926908  0.27746627  0.11356764    -0.83800
C1283       C  0.97496808  0.26872817  0.13191648     1.03900
O1284       O  0.96354603  0.24820592  0.15654692    -0.76600
O1285       O  0.98795648  0.27603596  0.22129878    -0.76700
C1286       C  0.53007564  0.30500566  0.23570443     1.03800
Cr1287     Cr  0.56640249  0.28370297  0.19647655     1.93700
Cr1288     Cr  0.53698237  0.27194410  0.12158689     1.93200
Cr1289     Cr  0.98412727  0.23783760  0.19696990     1.39100
O1290       O  0.53251608  0.26869713  0.16855088    -1.21800
O1291       O  0.70167427  0.07710485  0.07474225    -0.84100
O1292       O  0.74187745  0.07621236  0.02391860    -0.81100
C1293       C  0.75683906  0.08783793  0.48776657     0.99400
O1294       O  0.75055600  0.10118691  0.46245506    -0.81200
O1295       O  0.68602112  0.06389023  0.44525867    -0.83800
C1296       C  0.65627926  0.05170397  0.44852560     1.03900
O1297       O  0.64461310  0.06265684  0.47013936    -0.76600
O1298       O  0.66070210  0.04426521  0.04336672    -0.76800
C1299       C  0.67993121  0.04919599  0.06855715     1.03900
O1300       O  0.72002975  0.14007592  0.05373350    -0.84100
O1301       O  0.76315443  0.14118686  0.00815342    -0.81100
C1302       C  0.76527974  0.16684837  0.48410326     0.99400
O1303       O  0.74306559  0.15619873  0.46156593    -0.81200
O1304       O  0.68180792  0.12048579  0.43901750    -0.83800
C1305       C  0.66585126  0.13027789  0.45554335     1.03900
O1306       O  0.66012572  0.12463258  0.48846537    -0.76600
O1307       O  0.66832150  0.10830111  0.05649196    -0.76700
C1308       C  0.69316006  0.13433082  0.06428944     1.03800
Cr1309     Cr  0.72942336  0.10748287  0.03752863     1.93700
Cr1310     Cr  0.71442144  0.10978939  0.45550993     1.93200
Cr1311     Cr  0.65989828  0.07886086  0.01459178     1.39100
O1312       O  0.70029403  0.09447664  0.00333580    -1.21800
O1313       O  0.91257164  0.11776897  0.07650296    -0.84100
O1314       O  0.91759838  0.15559441  0.01956644    -0.81100
C1315       C  0.91792447  0.17533773  0.48516715     0.99400
O1316       O  0.90522229  0.15884806  0.45771044    -0.81200
O1317       O  0.94727536  0.13788137  0.44565519    -0.83800
C1318       C  0.96101042  0.12182897  0.44835942     1.03900
O1319       O  0.94875676  0.09619986  0.46622751    -0.76600
O1320       O  0.94955455  0.11262211  0.05113920    -0.76800
C1321       C  0.94156457  0.12621321  0.07378371     1.03900
O1322       O  0.85195201  0.07123469  0.05005001    -0.84100
O1323       O  0.85295073  0.11219398  0.00045330    -0.81100
C1324       C  0.83826355  0.10324453  0.46506158     0.99400
O1325       O  0.85327009  0.09540355  0.44416134    -0.81200
O1326       O  0.89665530  0.07709847  0.42544715    -0.83800
C1327       C  0.88733853  0.04965411  0.43792620     1.03900
O1328       O  0.88519815  0.04469088  0.47112661    -0.76600
O1329       O  0.88565252  0.05523397  0.06455477    -0.76700
C1330       C  0.85805149  0.05221053  0.06635633     1.03800
Cr1331     Cr  0.88502311  0.11295075  0.03443455     1.93700
Cr1332     Cr  0.90035317  0.11632762  0.44651258     1.93200
Cr1333     Cr  0.91769909  0.07418543  0.02415227     1.39100
O1334       O  0.90047138  0.09566409  0.00545230    -1.21800
O1335       O  0.85104103  0.27136879  0.04053773    -0.84100
O1336       O  0.84447360  0.22899428  0.98869854    -0.79300
C1337       C  0.83857541  0.24248237  0.46136801     0.99400
O1338       O  0.85091716  0.26944591  0.44681979    -0.81200
O1339       O  0.89014893  0.33417014  0.44305412    -0.83800
C1340       C  0.87954530  0.34649044  0.46465498     1.03900
O1341       O  0.88173476  0.34401260  0.49771073    -0.76600
O1342       O  0.89108055  0.31868206  0.05335469    -0.76800
C1343       C  0.86232209  0.29667101  0.05818281     1.03900
O1344       O  0.91054661  0.27719787  0.06047702    -0.84100
O1345       O  0.90736810  0.24278502  0.00091049    -0.81100
C1346       C  0.91774049  0.25030532  0.46874770     0.99400
O1347       O  0.90605614  0.26080938  0.44567094    -0.81200
O1348       O  0.94497918  0.32530966  0.44794072    -0.83800
C1349       C  0.95975597  0.35237368  0.46195837     1.03900
O1350       O  0.94647088  0.36080745  0.48481986    -0.76600
O1351       O  0.94922175  0.31710464  0.03319912    -0.76700
C1352       C  0.93980709  0.29670502  0.05764388     1.03800
Cr1353     Cr  0.87965327  0.25768124  0.02032487     1.93700
Cr1354     Cr  0.89813198  0.29771485  0.44905013     1.93200
Cr1355     Cr  0.91960948  0.32870277  0.00940311     1.39100
O1356       O  0.89802043  0.29844003  0.49608590    -1.21800
O1357       O  0.87146335  0.41564773  0.40856750    -0.84100
O1358       O  0.90592957  0.41458058  0.35116287    -0.81100
C1359       C  0.91707339  0.41841256  0.32021385     0.99400
O1360       O  0.91073844  0.43344529  0.29680197    -0.81200
O1361       O  0.84692007  0.39649472  0.28259291    -0.83800
C1362       C  0.81790366  0.38017092  0.29074331     1.03900
O1363       O  0.80626672  0.38927802  0.31492292    -0.76600
O1364       O  0.83028266  0.38251453  0.37812503    -0.76800
C1365       C  0.85039655  0.38759807  0.40209707     1.03900
O1366       O  0.88954116  0.47897824  0.39118481    -0.84100
O1367       O  0.93054392  0.48049121  0.34127189    -0.81100
C1368       C  0.92700660  0.49919908  0.32107241     0.99400
O1369       O  0.90269634  0.48896753  0.30144086    -0.81200
O1370       O  0.83945271  0.45180641  0.28298997    -0.83800
C1371       C  0.82238657  0.45812461  0.30285526     1.03900
O1372       O  0.81933084  0.45123380  0.33548988    -0.76600
O1373       O  0.83927853  0.44487364  0.40214414    -0.76700
C1374       C  0.86419478  0.47168560  0.40745520     1.03800
Cr1375     Cr  0.89709904  0.44655745  0.37084251     1.93700
Cr1376     Cr  0.87431894  0.44226719  0.29422112     1.93200
Cr1377     Cr  0.82653843  0.41815530  0.35674672     1.39100
O1378       O  0.86573842  0.43582403  0.34023863    -1.21800
O1379       O  0.58784502  0.49574396  0.36623620    -0.84100
O1380       O  0.53913343  0.48328071  0.31963173    -0.81100
C1381       C  0.55600015  0.49533242  0.29251542     0.99400
O1382       O  0.56797927  0.48101119  0.27688006    -0.81200
O1383       O  0.59301492  0.44167829  0.26886833    -0.83800
C1384       C  0.62018414  0.45348536  0.28314816     1.03900
O1385       O  0.62374482  0.45697137  0.31656393    -0.76600
O1386       O  0.60802328  0.46651956  0.38507905    -0.76800
C1387       C  0.60823841  0.49283351  0.38427821     1.03900
O1388       O  0.54857772  0.43930691  0.40342908    -0.84100
O1389       O  0.50283117  0.42218099  0.35092871    -0.81100
C1390       C  0.48985000  0.41768994  0.32081255     0.99400
O1391       O  0.50642472  0.42584970  0.29270830    -0.81200
O1392       O  0.53461028  0.38778575  0.28795975    -0.83800
C1393       C  0.55289452  0.37720131  0.29653634     1.03900
O1394       O  0.57564141  0.39230924  0.31813471    -0.76600
O1395       O  0.55348703  0.40020290  0.38395968    -0.76700
C1396       C  0.54175844  0.41095653  0.40611902     1.03800
Cr1397     Cr  0.54576940  0.45870808  0.35788361     1.93700
Cr1398     Cr  0.55120347  0.43461048  0.28510402     1.93200
Cr1399     Cr  0.58824951  0.42972486  0.35001697     1.39100
O1400       O  0.56211648  0.44111617  0.33061354    -1.21800
O1401       O  0.51764366  0.11660319  0.37856441    -0.84100
O1402       O  0.51465621  0.07307108  0.33052596    -0.81100
C1403       C  0.50457539  0.07848051  0.30187206     0.99400
O1404       O  0.52176731  0.10342013  0.28439712    -0.81200
O1405       O  0.56454759  0.16688286  0.27602484    -0.83800
C1406       C  0.55816899  0.18475344  0.29454151     1.03900
O1407       O  0.56164438  0.18646288  0.32779051    -0.76600
O1408       O  0.55635327  0.16335296  0.39478597    -0.76800
C1409       C  0.52741450  0.14193413  0.39574430     1.03900
O1410       O  0.57416947  0.12206770  0.40817966    -0.84100
O1411       O  0.57575923  0.08568354  0.35335779    -0.81100
C1412       C  0.57743343  0.07661637  0.32258334     0.99400
O1413       O  0.57233388  0.08896926  0.29511883    -0.81200
O1414       O  0.61697310  0.15431256  0.28653323    -0.83800
C1415       C  0.63254299  0.18311517  0.29560614     1.03900
O1416       O  0.62210955  0.19341752  0.31949051    -0.76600
O1417       O  0.61563977  0.16282768  0.38493291    -0.76700
C1418       C  0.60342425  0.14205438  0.40916166     1.03800
Cr1419     Cr  0.54727636  0.10205207  0.36514753     1.93700
Cr1420     Cr  0.56907948  0.12896708  0.28948140     1.93200
Cr1421     Cr  0.58763591  0.17328942  0.35529705     1.39100
O1422       O  0.56798964  0.13482824  0.33616503    -1.21800
C1423       C  0.57181821  0.02785012  0.29389814    -0.15200
C1424       C  0.58214138  0.04892842  0.32066450    -0.30300
H1425       H  0.56528019  0.03337276  0.26826113     0.13900
H1426       H  0.58832840  0.04197656  0.34574475     0.14400
C1427       C  0.95886305  0.03168170  0.28536982    -0.15200
C1428       C  0.98743956  0.03402588  0.28146876    -0.30300
H1429       H  0.95668681  0.05271735  0.28809860     0.13900
H1430       H  0.98847351  0.01220600  0.28061165     0.14400
C1431       C  0.94143881  0.40979502  0.31282695    -0.15200
C1432       C  0.95416615  0.40123033  0.33952107    -0.30300
H1433       H  0.95341002  0.41704409  0.28733233     0.13900
H1434       H  0.94253785  0.39469888  0.36525885     0.14400
C1435       C  0.86750958  0.36690813  0.45136815    -0.15200
C1436       C  0.85167500  0.36151274  0.42051173    -0.30300
H1437       H  0.87418083  0.38847461  0.46609552     0.13900
H1438       H  0.84319566  0.33918042  0.40670730     0.14400
C1439       C  0.99225590  0.37542618  0.45026645    -0.15200
C1440       C  0.51830405  0.39158399  0.43380023    -0.30300
H1441       H  0.00033258  0.40034243  0.45477868     0.13900
H1442       H  0.51674315  0.40397429  0.45688374     0.14400
C1443       C  0.98966928  0.13107049  0.42721267    -0.15200
C1444       C  0.50531935  0.14507282  0.41929596    -0.30300
H1445       H  0.00689956  0.15601417  0.42327384     0.13900
H1446       H  0.50027760  0.16425852  0.41529139     0.14400
C1447       C  0.86497587  0.49462760  0.43370877    -0.15200
C1448       C  0.88276294  0.02495889  0.41245009    -0.30300
H1449       H  0.84997430  0.48631787  0.45709626     0.13900
H1450       H  0.89096477  0.03287993  0.38546818     0.14400
C1451       C  0.92351133  0.22435293  0.45947274    -0.15200
C1452       C  0.93029320  0.20960145  0.48542739    -0.30300
H1453       H  0.91472873  0.21290885  0.43393780     0.13900
H1454       H  0.93903596  0.22124648  0.51090107     0.14400
C1455       C  0.65225001  0.14619608  0.43411736    -0.15200
C1456       C  0.62216907  0.13925980  0.43862857    -0.30300
H1457       H  0.66426852  0.15758239  0.40950898     0.13900
H1458       H  0.60910997  0.12505602  0.46152082     0.14400
C1459       C  0.62947072  0.51973854  0.40718314    -0.15200
C1460       C  0.63369632  0.02650422  0.42532595    -0.30300
H1461       H  0.62318365  0.53817918  0.40996614     0.13900
H1462       H  0.61105136  0.02568788  0.42134339     0.14400
C1463       C  0.79079407  0.19980443  0.48462950    -0.15200
C1464       C  0.80518904  0.21778405  0.45600283    -0.30300
H1465       H  0.78948900  0.20039151  0.01279492     0.13900
H1466       H  0.79493660  0.21148089  0.42953853     0.14400
C1467       C  0.80486273  0.09394228  0.45837237    -0.15200
C1468       C  0.78433405  0.08294822  0.48565234    -0.30300
H1469       H  0.79859283  0.10063633  0.43326791     0.13900
H1470       H  0.79226669  0.07218350  0.02216482     0.14400
C1471       C  0.96279097  0.29517346  0.08247685    -0.15200
C1472       C  0.95309376  0.27510453  0.11048394    -0.30300
H1473       H  0.98797114  0.30944812  0.07648928     0.13900
H1474       H  0.92787900  0.26114031  0.11649625     0.14400
C1475       C  0.96588066  0.15362586  0.09469862    -0.15200
C1476       C  0.95800455  0.16444994  0.12351670    -0.30300
H1477       H  0.99003278  0.16658700  0.08462906     0.13900
H1478       H  0.43639308  0.16708073  0.11524290     0.14400
C1479       C  0.55139977  0.34939907  0.27837814    -0.15200
C1480       C  0.52672116  0.32780798  0.25898282    -0.30300
H1481       H  0.57298184  0.34783569  0.27933226     0.13900
H1482       H  0.50416872  0.32746215  0.25924298     0.14400
C1483       C  0.54923477  0.20650825  0.27753483    -0.15200
C1484       C  0.52928305  0.19878610  0.24971736    -0.30300
H1485       H  0.55945742  0.23006251  0.28894116     0.13900
H1486       H  0.51715046  0.17470799  0.23958946     0.14400
C1487       C  0.69495590  0.02758329  0.12000710    -0.15200
C1488       C  0.67943709  0.02253539  0.08873861    -0.30300
H1489       H  0.70302998  0.05001092  0.13347215     0.13900
H1490       H  0.66971716  0.99966604  0.07582054     0.14400
C1491       C  0.80798250  0.03100800  0.09818461    -0.15200
C1492       C  0.83260291  0.02731768  0.08856934    -0.30300
H1493       H  0.81542423  0.55878383  0.09380812     0.13900
H1494       H  0.83428140  0.00695084  0.09764155     0.14400
C1495       C  0.64634372  0.45937564  0.25904597    -0.15200
C1496       C  0.67759756  0.47597594  0.26617291    -0.30300
H1497       H  0.63885399  0.44776873  0.23334645     0.13900
H1498       H  0.68655959  0.48982204  0.29028172     0.14400
C1499       C  0.80851480  0.48456170  0.25521418    -0.15200
C1500       C  0.80279171  0.47045927  0.28730072    -0.30300
H1501       H  0.83096225  0.49211415  0.24185844     0.13900
H1502       H  0.78091590  0.46459282  0.30111927     0.14400
C1503       C  0.63453207  0.38245016  0.15859814    -0.15200
C1504       C  0.61520726  0.36586718  0.13151181    -0.30300
H1505       H  0.62724944  0.37310642  0.18538786     0.13900
H1506       H  0.62114739  0.37377005  0.10414768     0.14400
C1507       C  0.84225119  0.29871501  0.08663924    -0.15200
C1508       C  0.81201041  0.29144660  0.07991450    -0.30300
H1509       H  0.85148030  0.30363139  0.11368795     0.13900
H1510       H  0.80416791  0.28870813  0.05230837     0.14400
C1511       C  0.71310202  0.17428191  0.11146859    -0.15200
C1512       C  0.69146849  0.15890046  0.08563200    -0.30300
H1513       H  0.72847656  0.16514778  0.12002348     0.13900
H1514       H  0.67442991  0.16623009  0.07811436     0.14400
C1515       C  0.80517924  0.33698835  0.24618217    -0.15200
C1516       C  0.79618255  0.35050971  0.27145959    -0.30300
H1517       H  0.83013958  0.34731206  0.23939822     0.13900
H1518       H  0.77111070  0.33969473  0.27802612     0.14400
C1519       C  0.68134129  0.20315332  0.25576989    -0.15200
C1520       C  0.66084537  0.20737082  0.27588325    -0.30300
H1521       H  0.68081044  0.18059445  0.25566433     0.13900
H1522       H  0.66403149  0.23112587  0.27685945     0.14400
C1523       C  0.74172006  0.36452610  0.13120961    -0.15200
C1524       C  0.75704547  0.38901210  0.15357556    -0.30300
H1525       H  0.72731678  0.36582901  0.10971260     0.13900
H1526       H  0.77104699  0.38710151  0.17517061     0.14400
C1527       C  0.62845832  0.24272087  0.15496513    -0.15200
C1528       C  0.61289324  0.25096916  0.13168165    -0.30300
H1529       H  0.61930702  0.23598329  0.18179456     0.13900
H1530       H  0.62300464  0.25946310  0.10547603     0.14400
O1531       O  0.75622552  0.31782951  0.71567925    -0.84100
O1532       O  0.71517897  0.31737563  0.66648675    -0.81100
C1533       C  0.73249016  0.33132156  0.63985374     0.99400
O1534       O  0.74312635  0.31751842  0.62083487    -0.81200
O1535       O  0.76877070  0.27873173  0.60848173    -0.83800
C1536       C  0.79479248  0.28988981  0.62582344     1.03900
O1537       O  0.79482539  0.28985073  0.65933785    -0.76600
O1538       O  0.77376776  0.28523578  0.72795695    -0.76800
C1539       C  0.77573964  0.31197552  0.73126669     1.03900
O1540       O  0.71052791  0.25470367  0.73899340    -0.84100
O1541       O  0.67185194  0.25202347  0.68423320    -0.81100
C1542       C  0.66142363  0.25283422  0.65381614     0.99400
O1543       O  0.68016169  0.26324510  0.62743395    -0.81200
O1544       O  0.70683966  0.22381345  0.61979173    -0.83800
C1545       C  0.72441905  0.21199915  0.62605124     1.03900
O1546       O  0.74807078  0.22567197  0.64660225    -0.76600
O1547       O  0.72128005  0.22183994  0.71158487    -0.76700
C1548       C  0.70627412  0.22704379  0.73526175     1.03800
Cr1549     Cr  0.71473648  0.28443776  0.69912486     1.93700
Cr1550     Cr  0.72517807  0.27069673  0.62257125     1.93200
Cr1551     Cr  0.75755057  0.25665229  0.68542014     1.39100
O1552       O  0.73265146  0.27083382  0.66883379    -1.21800
O1553       O  0.68772223  0.44952132  0.72437271    -0.84100
O1554       O  0.68324280  0.40562791  0.67698766    -0.81100
C1555       C  0.66667148  0.40989917  0.65409382     0.99400
O1556       O  0.67952152  0.43344544  0.63329061    -0.81200
O1557       O  0.72003111  0.49638908  0.61420909    -0.83800
C1558       C  0.70520412  0.00803792  0.62469961     1.03900
O1559       O  0.71184640  0.00874907  0.65736578    -0.76600
O1560       O  0.72091013  0.98688378  0.72240164    -0.76800
C1561       C  0.69675072  0.47539602  0.74001131     1.03900
O1562       O  0.75020343  0.46301082  0.74453173    -0.84100
O1563       O  0.74837622  0.42534082  0.68952322    -0.81100
C1564       C  0.74433173  0.41263500  0.65954750     0.99400
O1565       O  0.73256829  0.42082487  0.63385407    -0.81200
O1566       O  0.77383566  0.48566532  0.61821213    -0.83800
C1567       C  0.78126661  0.01078015  0.60810867     1.03900
O1568       O  0.77251209  0.02142221  0.63351335    -0.76600
O1569       O  0.78109411  0.99501829  0.69498536    -0.76700
C1570       C  0.77869040  0.48403290  0.73907753     1.03800
Cr1571     Cr  0.71847673  0.43826603  0.70636898     1.93700
Cr1572     Cr  0.72695600  0.45971774  0.62831171     1.93200
Cr1573     Cr  0.74525216  0.00009676  0.67584916     1.39100
O1574       O  0.73210275  0.46903006  0.67439603    -1.21800
O1575       O  0.56031254  0.24741883  0.71107622    -0.84100
O1576       O  0.59688332  0.28211666  0.65595013    -0.81100
C1577       C  0.59055843  0.26138727  0.63244851     0.99400
O1578       O  0.56417812  0.24874682  0.61632760    -0.81200
O1579       O  0.49930580  0.22547285  0.60755333    -0.83800
C1580       C  0.98192421  0.19909787  0.62123819     1.03900
O1581       O  0.97093828  0.20933902  0.64461645    -0.76600
O1582       O  0.00155002  0.21076537  0.70669671    -0.76800
C1583       C  0.53564901  0.22914657  0.72829341     1.03900
O1584       O  0.54815897  0.29743435  0.73010085    -0.84100
O1585       O  0.57891481  0.32891464  0.66881736    -0.81100
C1586       C  0.58842220  0.33505306  0.63713334     0.99400
O1587       O  0.57677995  0.31321227  0.61402353    -0.81200
O1588       O  0.51152288  0.29030863  0.61084161    -0.83800
C1589       C  0.97889413  0.27302235  0.62613818     1.03900
O1590       O  0.97879611  0.26958339  0.65935363    -0.76600
O1591       O  0.00252758  0.27003558  0.72562388    -0.76700
C1592       C  0.52483293  0.30215899  0.72850848     1.03800
Cr1593     Cr  0.56828549  0.28746441  0.68949831     1.93700
Cr1594     Cr  0.53743789  0.26926259  0.61577245     1.93200
Cr1595     Cr  0.99177021  0.24153502  0.68275196     1.39100
O1596       O  0.53375762  0.26760694  0.66283305    -1.21800
O1597       O  0.70280471  0.08191764  0.56972243    -0.84100
O1598       O  0.74280817  0.08293988  0.51711150    -0.81100
C1599       C  0.75681501  0.08035201  0.99539177     0.99400
O1600       O  0.75041415  0.09199426  0.96841897    -0.81200
O1601       O  0.68569348  0.04971968  0.95095173    -0.83800
C1602       C  0.65569828  0.03625419  0.95432186     1.03900
O1603       O  0.64333757  0.04761382  0.97480404    -0.76600
O1604       O  0.66211719  0.05162045  0.53645504    -0.76800
C1605       C  0.68085374  0.05460415  0.56160332     1.03900
O1606       O  0.72298126  0.14639430  0.55379462    -0.84100
O1607       O  0.76665767  0.14906488  0.50772688    -0.81100
C1608       C  0.75915510  0.15741943  0.98456808     0.99400
O1609       O  0.73761595  0.14409639  0.96141228    -0.81200
O1610       O  0.67712450  0.10229328  0.93811660    -0.83800
C1611       C  0.65940948  0.11153352  0.95144316     1.03900
O1612       O  0.65552719  0.11082824  0.98473436    -0.76600
O1613       O  0.67159680  0.11413073  0.55828185    -0.76700
C1614       C  0.69634844  0.14001761  0.56600646     1.03800
Cr1615     Cr  0.73160442  0.11421853  0.53459577     1.93700
Cr1616     Cr  0.71207193  0.09682782  0.95821922     1.93200
Cr1617     Cr  0.66253152  0.08922875  0.51290187     1.39100
O1618       O  0.70281980  0.10468088  0.50080654    -1.21800
O1619       O  0.91179191  0.11876487  0.56359686    -0.84100
O1620       O  0.91713508  0.16216031  0.51421925    -0.81100
C1621       C  0.91675229  0.16508906  0.98864350     0.99400
O1622       O  0.90545910  0.14563738  0.96297983    -0.81200
O1623       O  0.94633965  0.12184765  0.95420461    -0.83800
C1624       C  0.96193390  0.10859135  0.96364027     1.03900
O1625       O  0.95140430  0.08706271  0.98718785    -0.76600
O1626       O  0.94720437  0.11308782  0.53498096    -0.76800
C1627       C  0.94047180  0.12627542  0.55934847     1.03900
O1628       O  0.85005244  0.07554675  0.53611484    -0.84100
O1629       O  0.85203001  0.12032639  0.49184014    -0.81100
C1630       C  0.83826221  0.09237755  0.97618525     0.99400
O1631       O  0.85217524  0.08111267  0.95848738    -0.81200
O1632       O  0.89317257  0.05853244  0.94578339    -0.83800
C1633       C  0.88642805  0.03388305  0.96399180     1.03900
O1634       O  0.88905789  0.03501609  0.99744810    -0.76600
O1635       O  0.88209565  0.05616077  0.54303667    -0.76700
C1636       C  0.85534141  0.05447053  0.54831164     1.03800
Cr1637     Cr  0.88388398  0.11827819  0.52402925     1.93700
Cr1638     Cr  0.89938009  0.10135724  0.95888816     1.93200
Cr1639     Cr  0.91463168  0.07919215  0.50357308     1.39100
O1640       O  0.89910985  0.10396643  0.49116938    -1.21800
O1641       O  0.84878792  0.26637287  0.53845559    -0.84100
O1642       O  0.85501861  0.23573012  0.48191874    -0.79300
C1643       C  0.82929214  0.23497702  0.96557127     0.99400
O1644       O  0.84292096  0.26058235  0.94839237    -0.81200
O1645       O  0.88694919  0.32272231  0.93434735    -0.83800
C1646       C  0.88490415  0.34203394  0.95504435     1.03900
O1647       O  0.89306467  0.34428293  0.98721866    -0.76600
O1648       O  0.87989344  0.31405403  0.55994652    -0.76800
C1649       C  0.85270139  0.28902103  0.55771691     1.03900
O1650       O  0.91036081  0.28147190  0.56356835    -0.84100
O1651       O  0.91924546  0.25796833  0.50092072    -0.81100
C1652       C  0.90414405  0.23329152  0.96918179     0.99400
O1653       O  0.89234558  0.24330054  0.94558247    -0.81200
O1654       O  0.93622501  0.30550198  0.93388147    -0.83800
C1655       C  0.95724683  0.33263518  0.94385722     1.03900
O1656       O  0.95201091  0.34623000  0.96951543    -0.76600
O1657       O  0.94571033  0.32754835  0.54342285    -0.76700
C1658       C  0.93868525  0.30392622  0.56291964     1.03800
Cr1659     Cr  0.88434184  0.26280265  0.51976488     1.93700
Cr1660     Cr  0.89017667  0.28377082  0.94432734     1.93200
Cr1661     Cr  0.91249194  0.33409528  0.52009158     1.39100
O1662       O  0.89641176  0.29040266  0.99097817    -1.21800
O1663       O  0.87600526  0.41431349  0.90416688    -0.84100
O1664       O  0.90986791  0.41897341  0.84461826    -0.81100
C1665       C  0.92001661  0.42423124  0.81323894     0.99400
O1666       O  0.91216011  0.43947317  0.79187706    -0.81200
O1667       O  0.84756858  0.40019085  0.78176790    -0.83800
C1668       C  0.81835909  0.38502724  0.78922088     1.03900
O1669       O  0.80729210  0.39322588  0.81453064    -0.76600
O1670       O  0.83363546  0.38228876  0.87432548    -0.76800
C1671       C  0.85491222  0.38647108  0.89659384     1.03900
O1672       O  0.89052971  0.47765532  0.89348750    -0.84100
O1673       O  0.93111595  0.48540389  0.84004070    -0.81100
C1674       C  0.92597814  0.50348824  0.82034330     0.99400
O1675       O  0.90115900  0.49241364  0.80148954    -0.81200
O1676       O  0.83765023  0.45367357  0.78601816    -0.83800
C1677       C  0.82063538  0.45892197  0.80724160     1.03900
O1678       O  0.81952812  0.45223366  0.84002346    -0.76600
O1679       O  0.84113973  0.44135847  0.90500420    -0.76700
C1680       C  0.86539441  0.46821347  0.91109164     1.03800
Cr1681     Cr  0.89960225  0.44832220  0.86844554     1.93700
Cr1682     Cr  0.87413402  0.44585957  0.79358280     1.93200
Cr1683     Cr  0.82828778  0.41860583  0.85754961     1.39100
O1684       O  0.86719421  0.43801525  0.83965580    -1.21800
O1685       O  0.58192887  0.48330549  0.87377002    -0.84100
O1686       O  0.53205608  0.47186283  0.83039071    -0.81100
C1687       C  0.54787600  0.48688903  0.80355233     0.99400
O1688       O  0.56181024  0.47596237  0.78518053    -0.81200
O1689       O  0.58970551  0.44010712  0.76877560    -0.83800
C1690       C  0.61723628  0.45253776  0.78232824     1.03900
O1691       O  0.62122637  0.45359605  0.81572201    -0.76600
O1692       O  0.60568553  0.45591517  0.88647885    -0.76800
C1693       C  0.60377097  0.48101270  0.88920349     1.03900
O1694       O  0.54649314  0.42311047  0.90533500    -0.84100
O1695       O  0.49926179  0.40809526  0.85556197    -0.81100
C1696       C  0.48580795  0.40690037  0.82650331     0.99400
O1697       O  0.50204819  0.41778060  0.79829010    -0.81200
O1698       O  0.53280928  0.38329178  0.78595690    -0.83800
C1699       C  0.55139253  0.37260774  0.79227993     1.03900
O1700       O  0.57555563  0.38762979  0.81209111    -0.76600
O1701       O  0.55418022  0.38816808  0.87945082    -0.76700
C1702       C  0.54013927  0.39487136  0.90294958     1.03800
Cr1703     Cr  0.54116401  0.44558191  0.86405300     1.93700
Cr1704     Cr  0.54740545  0.42949921  0.78780361     1.93200
Cr1705     Cr  0.58725755  0.42210170  0.84784790     1.39100
O1706       O  0.55902344  0.43260414  0.83283477    -1.21800
O1707       O  0.53762749  0.12397432  0.89635591    -0.84100
O1708       O  0.50853743  0.08985395  0.83484217    -0.81100
C1709       C  0.50526597  0.07991271  0.80329088     0.99400
O1710       O  0.52934328  0.08939838  0.78346332    -0.81200
O1711       O  0.55416489  0.15429288  0.77389468    -0.83800
C1712       C  0.56716296  0.18322573  0.78233028     1.03900
O1713       O  0.58604323  0.19401273  0.80846485    -0.76600
O1714       O  0.55109587  0.16875721  0.86943284    -0.76800
C1715       C  0.53476020  0.14816413  0.89238841     1.03900
O1716       O  0.58681881  0.10942909  0.88781119    -0.84100
O1717       O  0.55448320  0.06981172  0.83316526    -0.81100
C1718       C  0.57766972  0.07457026  0.81413909     0.99400
O1719       O  0.59259177  0.09995892  0.79631014    -0.81200
O1720       O  0.61752964  0.16420065  0.78018746    -0.83800
C1721       C  0.63951141  0.18141316  0.80178549     1.03900
O1722       O  0.63370360  0.18148721  0.83440712    -0.76600
O1723       O  0.60178492  0.15926978  0.89859400    -0.76700
C1724       C  0.60345885  0.13452313  0.90513752     1.03800
Cr1725     Cr  0.54854669  0.10096554  0.86090388     1.93700
Cr1726     Cr  0.57330950  0.12750919  0.78695908     1.93200
Cr1727     Cr  0.59142297  0.17269080  0.85141005     1.39100
O1728       O  0.57130021  0.13390815  0.83295588    -1.21800
C1729       C  0.57643027  0.02721151  0.78988426    -0.15200
C1730       C  0.58640870  0.04966668  0.81497175    -0.30300
H1731       H  0.56979155  0.03147619  0.76364395     0.13900
H1732       H  0.59190788  0.04406571  0.84120110     0.14400
C1733       C  0.94657932  0.04160676  0.80912950    -0.15200
C1734       C  0.97212952  0.05337849  0.78807091    -0.30300
H1735       H  0.94746639  0.05423782  0.83315648     0.13900
H1736       H  0.97176163  0.04019194  0.76473313     0.14400
C1737       C  0.94458053  0.41649400  0.80323443    -0.15200
C1738       C  0.95593568  0.40429619  0.82762748    -0.30300
H1739       H  0.95766367  0.42690629  0.77885738     0.13900
H1740       H  0.94321228  0.39480720  0.85242428     0.14400
C1741       C  0.87534426  0.36455140  0.94152583    -0.15200
C1742       C  0.85687466  0.35965044  0.91270412    -0.30300
H1743       H  0.88498270  0.38690260  0.95563052     0.13900
H1744       H  0.84544363  0.33683469  0.89944845     0.14400
C1745       C  0.98756180  0.34868443  0.92328410    -0.15200
C1746       C  0.51375663  0.37013831  0.92445785    -0.30300
H1747       H  0.98837548  0.33786138  0.89847551     0.13900
H1748       H  0.50522830  0.34534439  0.91866954     0.14400
C1749       C  0.99172533  0.11584053  0.94555715    -0.15200
C1750       C  0.51162190  0.15127770  0.91476598    -0.30300
H1751       H  0.00169642  0.10084024  0.95250670     0.13900
H1752       H  0.50165219  0.16568708  0.90544962     0.14400
C1753       C  0.86536551  0.48943884  0.93861032    -0.15200
C1754       C  0.88044425  0.00467985  0.94560987    -0.30300
H1755       H  0.85467297  0.48044290  0.96443201     0.13900
H1756       H  0.89809522  0.99744808  0.94997915     0.14400
C1757       C  0.91040797  0.20738041  0.96079827    -0.15200
C1758       C  0.92492683  0.19832715  0.98480858    -0.30300
H1759       H  0.89804215  0.19235542  0.93823563     0.13900
H1760       H  0.93689876  0.21357499  0.00738749     0.14400
C1761       C  0.64095758  0.11913363  0.92601479    -0.15200
C1762       C  0.62493701  0.13426668  0.93302777    -0.30300
H1763       H  0.63966607  0.11038207  0.89917497     0.13900
H1764       H  0.62713808  0.14549334  0.95850101     0.14400
C1765       C  0.62431274  0.50722750  0.91291037    -0.15200
C1766       C  0.63301589  0.00930282  0.93196862    -0.30300
H1767       H  0.61665183  0.52448237  0.91729486     0.13900
H1768       H  0.60887216  0.00536296  0.93202446     0.14400
C1769       C  0.78038900  0.19171917  0.98624293    -0.15200
C1770       C  0.79627353  0.21003127  0.95843060    -0.30300
H1771       H  0.80238369  0.20752960  0.51042744     0.13900
H1772       H  0.78854910  0.20259051  0.93132218     0.14400
C1773       C  0.80506884  0.08372001  0.96873964    -0.15200
C1774       C  0.78500982  0.07642373  0.99619572    -0.30300
H1775       H  0.79849398  0.08728816  0.94216055     0.13900
H1776       H  0.79133130  0.07592115  0.51010989     0.14400
C1777       C  0.96355390  0.30134794  0.58288703    -0.15200
C1778       C  0.95615597  0.28131011  0.61045599    -0.30300
H1779       H  0.98791784  0.31448921  0.57342467     0.13900
H1780       H  0.93228762  0.26985983  0.62142268     0.14400
C1781       C  0.96613483  0.15237674  0.58065205    -0.15200
C1782       C  0.95905892  0.16832658  0.60458297    -0.30300
H1783       H  0.99079034  0.16072181  0.57387041     0.13900
H1784       H  0.43690234  0.15909023  0.62690084     0.14400
C1785       C  0.54709423  0.34353449  0.77482119    -0.15200
C1786       C  0.52412873  0.32682640  0.75079897    -0.30300
H1787       H  0.56529237  0.33717647  0.77995966     0.13900
H1788       H  0.50573768  0.33287297  0.74551955     0.14400
C1789       C  0.56387813  0.20615601  0.75962433    -0.15200
C1790       C  0.53604214  0.20448226  0.75138202    -0.30300
H1791       H  0.58603135  0.22673297  0.75130292     0.13900
H1792       H  0.51386064  0.18527343  0.76174316     0.14400
C1793       C  0.69439398  0.02990966  0.61128602    -0.15200
C1794       C  0.67967769  0.02671774  0.57969003    -0.30300
H1795       H  0.70186127  0.05134996  0.62657314     0.13900
H1796       H  0.67052488  0.00477642  0.56493048     0.14400
C1797       C  0.80878126  0.03404348  0.58699782    -0.15200
C1798       C  0.82990732  0.02855489  0.56990224    -0.30300
H1799       H  0.82064615  0.56174933  0.60157430     0.13900
H1800       H  0.82867935  0.00570995  0.57215087     0.14400
C1801       C  0.64366888  0.46212779  0.75725776    -0.15200
C1802       C  0.67471327  0.47699080  0.76561608    -0.30300
H1803       H  0.63669232  0.45362649  0.73019085     0.13900
H1804       H  0.68319716  0.48738257  0.79163382     0.14400
C1805       C  0.80445607  0.48413343  0.76052038    -0.15200
C1806       C  0.79905399  0.46945657  0.79239419    -0.30300
H1807       H  0.82753913  0.49335264  0.74801116     0.13900
H1808       H  0.77660114  0.46169351  0.80584506     0.14400
C1809       C  0.63216320  0.38734467  0.65452033    -0.15200
C1810       C  0.61657300  0.36639130  0.62844078    -0.30300
H1811       H  0.62150900  0.38270494  0.68074945     0.13900
H1812       H  0.62773515  0.36961031  0.60267236     0.14400
C1813       C  0.82446680  0.28490242  0.57686310    -0.15200
C1814       C  0.82497999  0.29992825  0.60677786    -0.30300
H1815       H  0.80165435  0.26633364  0.56685410     0.13900
H1816       H  0.84748841  0.31656501  0.61913779     0.14400
C1817       C  0.72076080  0.18420379  0.60697399    -0.15200
C1818       C  0.69457465  0.16325070  0.58939988    -0.30300
H1819       H  0.74175521  0.18159264  0.60645585     0.13900
H1820       H  0.67261678  0.16397514  0.59114490     0.14400
C1821       C  0.80028359  0.33641457  0.75409456    -0.15200
C1822       C  0.79563946  0.35937908  0.76671469    -0.30300
H1823       H  0.82148379  0.33533030  0.76113984     0.13900
H1824       H  0.77311853  0.35859088  0.76191978     0.14400
C1825       C  0.68170060  0.20036222  0.75639802    -0.15200
C1826       C  0.67129890  0.20458168  0.78779312    -0.30300
H1827       H  0.66938381  0.17722834  0.74384953     0.13900
H1828       H  0.68457308  0.22713946  0.80139442     0.14400
C1829       C  0.73919159  0.36383876  0.63143343    -0.15200
C1830       C  0.74947174  0.38518540  0.65776974    -0.30300
H1831       H  0.73154746  0.36862410  0.60607662     0.13900
H1832       H  0.75725841  0.37922935  0.68242531     0.14400
C1833       C  0.62799170  0.24537532  0.65168938    -0.15200
C1834       C  0.61539007  0.25334903  0.62432749    -0.30300
H1835       H  0.61512271  0.23882101  0.67673493     0.13900
H1836       H  0.62725627  0.26028237  0.59878965     0.14400
O1837       O  0.75178195  0.79741853  0.22892739    -0.84100
O1838       O  0.74012541  0.82428242  0.16935656    -0.81100
C1839       C  0.73064145  0.82763583  0.13912428     0.99400
O1840       O  0.71508853  0.80378686  0.11911029    -0.81200
O1841       O  0.75695764  0.78342541  0.09920262    -0.83800
C1842       C  0.77932409  0.77797866  0.10631123     1.03900
O1843       O  0.77872973  0.76248755  0.13387335    -0.76600
O1844       O  0.78514166  0.79117208  0.19718965    -0.76800
C1845       C  0.77999569  0.80587260  0.22104659     1.03900
O1846       O  0.69048517  0.74479023  0.22213637    -0.84100
O1847       O  0.67544030  0.77502075  0.17134615    -0.81100
C1848       C  0.65679765  0.75044997  0.15442647     0.99400
O1849       O  0.66770997  0.73766915  0.13429619    -0.81200
O1850       O  0.70885318  0.71879355  0.10921818    -0.83800
C1851       C  0.71138637  0.69884953  0.12866711     1.03900
O1852       O  0.72327322  0.70603410  0.15940103    -0.76600
O1853       O  0.72806566  0.73178824  0.22478638    -0.76700
C1854       C  0.70116482  0.72783696  0.23459238     1.03800
Cr1855     Cr  0.71562137  0.78391265  0.19524972     1.93700
Cr1856     Cr  0.71322309  0.76117885  0.11915243     1.93200
Cr1857     Cr  0.75186777  0.74921174  0.17800691     1.39100
O1858       O  0.72692619  0.76432557  0.16387650    -1.21800
O1859       O  0.68854118  0.94251079  0.22733359    -0.84100
O1860       O  0.68248068  0.89925835  0.17838413    -0.81100
C1861       C  0.66354042  0.90160412  0.15708891     0.99400
O1862       O  0.67348442  0.92504830  0.13617012    -0.81200
O1863       O  0.71097446  0.98835692  0.11592192    -0.83800
C1864       C  0.71130662  0.51036470  0.13449523     1.03900
O1865       O  0.71818413  0.51386149  0.16715350    -0.76600
O1866       O  0.72704736  0.49747046  0.23471276    -0.76800
C1867       C  0.69727462  0.96854811  0.24250469     1.03900
O1868       O  0.75279394  0.95975482  0.24006489    -0.84100
O1869       O  0.74922210  0.92240466  0.18410506    -0.81100
C1870       C  0.74339140  0.90940523  0.15417396     0.99400
O1871       O  0.72791928  0.91543477  0.13088387    -0.81200
O1872       O  0.76624640  0.97967402  0.11516529    -0.83800
C1873       C  0.78781264  0.51395805  0.12166014     1.03900
O1874       O  0.77878699  0.52594976  0.14528645    -0.76600
O1875       O  0.78764112  0.50372054  0.20970675    -0.76700
C1876       C  0.78046896  0.98081067  0.23155738     1.03800
Cr1877     Cr  0.71896046  0.93309777  0.20515372     1.93700
Cr1878     Cr  0.72028565  0.95295359  0.12773753     1.93200
Cr1879     Cr  0.75175676  0.50737629  0.18835335     1.39100
O1880       O  0.72830351  0.96306446  0.17331488    -1.21800
O1881       O  0.53719493  0.74783732  0.23386245    -0.84100
O1882       O  0.57211393  0.74857762  0.17547162    -0.81100
C1883       C  0.58062992  0.75040540  0.14344465     0.99400
O1884       O  0.57003510  0.76133691  0.11969511    -0.81200
O1885       O  0.50566430  0.71969408  0.11264771    -0.83800
C1886       C  0.98781679  0.70044367  0.13394750     1.03900
O1887       O  0.98696084  0.70444263  0.16693510    -0.76600
O1888       O  0.01106411  0.73109831  0.23237066    -0.76800
C1889       C  0.51729370  0.71900209  0.22926011     1.03900
O1890       O  0.54873730  0.80924844  0.21518886    -0.84100
O1891       O  0.58925920  0.81238475  0.16253683    -0.81100
C1892       C  0.58448821  0.82770018  0.13843600     0.99400
O1893       O  0.55907443  0.81442375  0.12037058    -0.81200
O1894       O  0.49484166  0.77358437  0.10911751    -0.83800
C1895       C  0.98137613  0.77297679  0.12542492     1.03900
O1896       O  0.97202568  0.75249701  0.15003008    -0.76600
O1897       O  0.00128084  0.78407016  0.21208902    -0.76700
C1898       C  0.52287584  0.80081692  0.23116435     1.03800
Cr1899     Cr  0.55927066  0.77835464  0.19461539     1.93700
Cr1900     Cr  0.53173594  0.76688538  0.11901207     1.93200
Cr1901     Cr  0.99575077  0.74477342  0.18897438     1.39100
O1902       O  0.52606406  0.76368565  0.16576530    -1.21800
O1903       O  0.70441699  0.57863342  0.07363175    -0.84100
O1904       O  0.74891943  0.58433992  0.02451016    -0.81100
C1905       C  0.76880019  0.59842716  0.49381570     0.99400
O1906       O  0.76340620  0.61175301  0.46776998    -0.81200
O1907       O  0.70200355  0.56692116  0.44780663    -0.83800
C1908       C  0.67207140  0.55021817  0.44909019     1.03900
O1909       O  0.65603633  0.55803581  0.46880281    -0.76600
O1910       O  0.66585657  0.54444703  0.04027984    -0.76800
C1911       C  0.68430883  0.55034070  0.06639191     1.03900
O1912       O  0.71705739  0.64019102  0.05484195    -0.84100
O1913       O  0.76404232  0.64845317  0.01114866    -0.81100
C1914       C  0.76784856  0.67381181  0.48504807     0.99400
O1915       O  0.74635395  0.66052788  0.46172243    -0.81200
O1916       O  0.68673873  0.61549640  0.43511006    -0.83800
C1917       C  0.66528793  0.61998518  0.44789903     1.03900
O1918       O  0.66035276  0.61778684  0.48108203    -0.76600
O1919       O  0.66604921  0.60475153  0.05453650    -0.76700
C1920       C  0.68907514  0.63147681  0.06413704     1.03800
Cr1921     Cr  0.73151336  0.61165096  0.03837126     1.93700
Cr1922     Cr  0.72360751  0.61338839  0.45649941     1.93200
Cr1923     Cr  0.66253263  0.57758795  0.01192859     1.39100
O1924       O  0.70375254  0.59751396  0.00298744    -1.21800
O1925       O  0.91993278  0.62068131  0.07625710    -0.84100
O1926       O  0.92541200  0.66370579  0.02510763    -0.81100
C1927       C  0.92694064  0.67920831  0.50143343     0.99400
O1928       O  0.91836000  0.66365878  0.47264496    -0.81200
O1929       O  0.95865491  0.63882562  0.46024473    -0.83800
C1930       C  0.97026080  0.62079422  0.46378767     1.03900
O1931       O  0.95634916  0.59592267  0.48262445    -0.76600
O1932       O  0.95526326  0.61436588  0.04836814    -0.76800
C1933       C  0.94862968  0.62859734  0.07167704     1.03900
O1934       O  0.85797205  0.57744188  0.04937758    -0.84100
O1935       O  0.86101470  0.62205939  0.00381952    -0.81100
C1936       C  0.84991819  0.61035135  0.47710432     0.99400
O1937       O  0.86500373  0.60210473  0.45692917    -0.81200
O1938       O  0.90498829  0.57928663  0.44103472    -0.83800
C1939       C  0.89323468  0.55152359  0.45390801     1.03900
O1940       O  0.89168301  0.54692319  0.48723377    -0.76600
O1941       O  0.89008204  0.55889953  0.06013374    -0.76700
C1942       C  0.86315782  0.55702862  0.06377306     1.03800
Cr1943     Cr  0.89232024  0.61989104  0.03634066     1.93700
Cr1944     Cr  0.91160132  0.62013547  0.46117272     1.93200
Cr1945     Cr  0.92155237  0.57881282  0.01937296     1.39100
O1946       O  0.90740179  0.60422420  0.00467225    -1.21800
O1947       O  0.84919889  0.77403151  0.04448278    -0.84100
O1948       O  0.84503057  0.73335587  0.99290073    -0.79300
C1949       C  0.84279718  0.74908916  0.46951995     0.99400
O1950       O  0.85787339  0.77449902  0.45198365    -0.81200
O1951       O  0.89994192  0.83829568  0.44263817    -0.83800
C1952       C  0.89106416  0.85423120  0.46095312     1.03900
O1953       O  0.89300050  0.85487785  0.49436419    -0.76600
O1954       O  0.88660248  0.82269984  0.05714547    -0.76800
C1955       C  0.85835007  0.79940175  0.06124684     1.03900
O1956       O  0.91043254  0.78345676  0.06582783    -0.84100
O1957       O  0.90935664  0.74983363  0.00768184    -0.81100
C1958       C  0.91891420  0.75142040  0.48388893     0.99400
O1959       O  0.90976948  0.76217354  0.45844493    -0.81200
O1960       O  0.95245137  0.82647008  0.45349854    -0.83800
C1961       C  0.96779487  0.85513621  0.46284994     1.03900
O1962       O  0.95560030  0.86624167  0.48364057    -0.76600
O1963       O  0.94731571  0.82502483  0.03883065    -0.76700
C1964       C  0.93948018  0.80374148  0.06204985     1.03800
Cr1965     Cr  0.87961315  0.76257039  0.02556330     1.93700
Cr1966     Cr  0.90511218  0.80094335  0.45522498     1.93200
Cr1967     Cr  0.91619848  0.83391602  0.01400587     1.39100
O1968       O  0.90463666  0.80620878  0.50179440    -1.21800
O1969       O  0.88647567  0.92084319  0.39362960    -0.84100
O1970       O  0.91944382  0.92219288  0.33420147    -0.81100
C1971       C  0.92849438  0.92487355  0.30240244     0.99400
O1972       O  0.91750983  0.93568057  0.27871531    -0.81200
O1973       O  0.85216300  0.89450783  0.27192377    -0.83800
C1974       C  0.82361337  0.87872838  0.28200787     1.03900
O1975       O  0.81351708  0.88898988  0.30638648    -0.76600
O1976       O  0.84361315  0.88511002  0.36686294    -0.76800
C1977       C  0.86513274  0.89225601  0.38978136     1.03900
O1978       O  0.89748096  0.98276689  0.37547792    -0.84100
O1979       O  0.93746427  0.98629646  0.32147553    -0.81100
C1980       C  0.93227675  0.00078155  0.29670492     0.99400
O1981       O  0.90554576  0.98837483  0.28157738    -0.81200
O1982       O  0.84139434  0.94827847  0.27188900    -0.83800
C1983       C  0.82590040  0.95529772  0.29354326     1.03900
O1984       O  0.82601403  0.95014209  0.32643695    -0.76600
O1985       O  0.85000374  0.94494443  0.39112958    -0.76700
C1986       C  0.87289922  0.97307981  0.39430201     1.03800
Cr1987     Cr  0.90773838  0.95206761  0.35419156     1.93700
Cr1988     Cr  0.87866642  0.94127651  0.27951295     1.93200
Cr1989     Cr  0.83612351  0.91860857  0.34632851     1.39100
O1990       O  0.87409922  0.93748028  0.32632106    -1.21800
O1991       O  0.59327544  0.98609442  0.37365946    -0.84100
O1992       O  0.54628502  0.98251876  0.33009495    -0.81100
C1993       C  0.56270458  0.99464499  0.30264269     0.99400
O1994       O  0.57051417  0.97845930  0.28361338    -0.81200
O1995       O  0.59148496  0.93640161  0.27142024    -0.83800
C1996       C  0.61836452  0.94594214  0.28577250     1.03900
O1997       O  0.62175391  0.94642440  0.31924975    -0.76600
O1998       O  0.60757162  0.95139927  0.38899025    -0.76800
C1999       C  0.61217323  0.97940780  0.38954861     1.03900
O2000       O  0.54915815  0.92858535  0.40723951    -0.84100
O2001       O  0.50447372  0.92074667  0.35690822    -0.81100
C2002       C  0.49140290  0.91788807  0.32709086     0.99400
O2003       O  0.50746671  0.92548012  0.29861829    -0.81200
O2004       O  0.53109847  0.88379113  0.28798629    -0.83800
C2005       C  0.54785722  0.87102335  0.29455562     1.03900
O2006       O  0.57092254  0.88371265  0.31592469    -0.76600
O2007       O  0.54886476  0.88842330  0.38250434    -0.76700
C2008       C  0.53852446  0.89925647  0.40617170     1.03800
Cr2009     Cr  0.54920631  0.95307338  0.36466402     1.93700
Cr2010     Cr  0.55078196  0.93124181  0.28893078     1.93200
Cr2011     Cr  0.58539258  0.91846370  0.35094347     1.39100
O2012       O  0.56199582  0.93434338  0.33434657    -1.21800
O2013       O  0.53368438  0.61943346  0.39506504    -0.84100
O2014       O  0.50550235  0.58606981  0.33344442    -0.81100
C2015       C  0.50172974  0.57761696  0.30129906     0.99400
O2016       O  0.52516558  0.58976124  0.28025975    -0.81200
O2017       O  0.54525757  0.65397412  0.27603467    -0.83800
C2018       C  0.55653468  0.68217046  0.28645142     1.03900
O2019       O  0.57794288  0.69343168  0.31012963    -0.76600
O2020       O  0.54492876  0.66464285  0.37048393    -0.76800
C2021       C  0.52847789  0.64236908  0.39171689     1.03900
O2022       O  0.58690171  0.60962092  0.38301345    -0.84100
O2023       O  0.55532924  0.57133228  0.32606797    -0.81100
C2024       C  0.57647517  0.57796756  0.30285005     0.99400
O2025       O  0.59010398  0.60479365  0.28788278    -0.81200
O2026       O  0.61109639  0.66851627  0.27730875    -0.83800
C2027       C  0.63357092  0.68429936  0.29908091     1.03900
O2028       O  0.62831478  0.68274534  0.33203827    -0.76600
O2029       O  0.59811558  0.65784687  0.39659807    -0.76700
C2030       C  0.60225247  0.63432768  0.40143080     1.03800
Cr2031     Cr  0.54694938  0.59932579  0.35751246     1.93700
Cr2032     Cr  0.56791102  0.62976514  0.28394395     1.93200
Cr2033     Cr  0.58586587  0.67161391  0.35089334     1.39100
O2034       O  0.56712309  0.63361481  0.33070539    -1.21800
C2035       C  0.56000817  0.52567973  0.27976582    -0.15200
C2036       C  0.58358163  0.55297956  0.29297923    -0.30300
H2037       H  0.53847817  0.52516074  0.27041355     0.13900
H2038       H  0.60429329  0.55359959  0.30509597     0.14400
C2039       C  0.95151733  0.53270918  0.32309872    -0.15200
C2040       C  0.97262484  0.54771720  0.29712059    -0.30300
H2041       H  0.95785083  0.54195732  0.34995193     0.13900
H2042       H  0.96760719  0.53886210  0.27008467     0.14400
C2043       C  0.95535295  0.91962946  0.29431342    -0.15200
C2044       C  0.96692378  0.90865856  0.31992721    -0.30300
H2045       H  0.96899438  0.93024954  0.27032615     0.13900
H2046       H  0.95303636  0.89850010  0.34391510     0.14400
C2047       C  0.88124407  0.87484776  0.44302281    -0.15200
C2048       C  0.86657705  0.86767177  0.41130860    -0.30300
H2049       H  0.88798599  0.89748601  0.45532129     0.13900
H2050       H  0.85780686  0.84429698  0.39994045     0.14400
C2051       C  0.99936188  0.87731091  0.44803299    -0.15200
C2052       C  0.51272099  0.87929122  0.43129730    -0.30300
H2053       H  0.00843515  0.90234198  0.45314424     0.13900
H2054       H  0.51273843  0.88981796  0.45663696     0.14400
C2055       C  0.99791576  0.62531801  0.44306849    -0.15200
C2056       C  0.50262363  0.64266642  0.41231886    -0.30300
H2057       H  0.00354996  0.60635197  0.44546586     0.13900
H2058       H  0.49571869  0.66021403  0.40592568     0.14400
C2059       C  0.87142234  0.99439539  0.42078429    -0.15200
C2060       C  0.88543436  0.52573449  0.42847505    -0.30300
H2061       H  0.86129166  0.98518415  0.44678010     0.13900
H2062       H  0.89822456  0.53321619  0.40343271     0.14400
C2063       C  0.92599578  0.72578498  0.47679814    -0.15200
C2064       C  0.93411625  0.71238096  0.50313359    -0.30300
H2065       H  0.91940735  0.71455275  0.45090549     0.13900
H2066       H  0.94036251  0.72360111  0.52906725     0.14400
C2067       C  0.64414567  0.62384387  0.42209479    -0.15200
C2068       C  0.62470377  0.63531964  0.42920140    -0.30300
H2069       H  0.64419005  0.61587613  0.39519198     0.13900
H2070       H  0.62562178  0.64573928  0.45487778     0.14400
C2071       C  0.63806360  0.00392181  0.41109294    -0.15200
C2072       C  0.65491502  0.52280266  0.42512927    -0.30300
H2073       H  0.65921160  0.00242738  0.41712990     0.13900
H2074       H  0.66352810  0.50631356  0.42116527     0.14400
C2075       C  0.79022053  0.70806808  0.48567864    -0.15200
C2076       C  0.81051114  0.72401805  0.45925488    -0.30300
H2077       H  0.78686384  0.70804591  0.01404877     0.13900
H2078       H  0.80611026  0.71481362  0.43237360     0.14400
C2079       C  0.81776001  0.60364756  0.46812378    -0.15200
C2080       C  0.79629153  0.59371674  0.49428355    -0.30300
H2081       H  0.81305314  0.61045312  0.44219575     0.13900
H2082       H  0.80098925  0.58305627  0.02265932     0.14400
C2083       C  0.96445440  0.80197877  0.08346416    -0.15200
C2084       C  0.95734297  0.77881174  0.10758991    -0.30300
H2085       H  0.98919525  0.81873592  0.07750211     0.13900
H2086       H  0.93253964  0.76239732  0.11372038     0.14400
C2087       C  0.97392988  0.65670378  0.09056326    -0.15200
C2088       C  0.96723714  0.66810643  0.11971798    -0.30300
H2089       H  0.99716137  0.67006133  0.07824071     0.13900
H2090       H  0.43008727  0.66290843  0.11298864     0.14400
C2091       C  0.54454580  0.84331622  0.27490825    -0.15200
C2092       C  0.51999139  0.82380144  0.25424483    -0.30300
H2093       H  0.56496128  0.83975367  0.27630848     0.13900
H2094       H  0.49828004  0.82507669  0.25372376     0.14400
C2095       C  0.54671711  0.70364105  0.27028768    -0.15200
C2096       C  0.52172574  0.69463428  0.24815222    -0.30300
H2097       H  0.56164122  0.72861300  0.27663302     0.13900
H2098       H  0.50618765  0.66974869  0.24195236     0.14400
C2099       C  0.69962466  0.53040429  0.11845695    -0.15200
C2100       C  0.68472146  0.52447959  0.08685098    -0.30300
H2101       H  0.70628696  0.55258205  0.13184438     0.13900
H2102       H  0.67644052  0.50177393  0.07398391     0.14400
C2103       C  0.81430239  0.53619724  0.09871739    -0.15200
C2104       C  0.83770464  0.53179804  0.08599800    -0.30300
H2105       H  0.80821975  0.05286778  0.09127090     0.13900
H2106       H  0.83864941  0.51055766  0.09284515     0.14400
C2107       C  0.64435250  0.95268749  0.26143556    -0.15200
C2108       C  0.67551757  0.96981480  0.26857331    -0.30300
H2109       H  0.63687531  0.94168116  0.23542564     0.13900
H2110       H  0.68441112  0.98329425  0.29293293     0.14400
C2111       C  0.80790454  0.98081245  0.24881190    -0.15200
C2112       C  0.80430963  0.96619225  0.28031065    -0.30300
H2113       H  0.82977064  0.98939656  0.23387006     0.13900
H2114       H  0.78306877  0.95942020  0.29588396     0.14400
C2115       C  0.63012379  0.87605899  0.15919175    -0.15200
C2116       C  0.61044183  0.86077785  0.13175959    -0.30300
H2117       H  0.62346043  0.86526746  0.18546658     0.13900
H2118       H  0.61575779  0.87032933  0.10493269     0.14400
C2119       C  0.83604353  0.80008482  0.08757144    -0.15200
C2120       C  0.80477278  0.78681759  0.07964070    -0.30300
H2121       H  0.84463112  0.80884248  0.11408467     0.13900
H2122       H  0.79709083  0.78028408  0.05233726     0.14400
C2123       C  0.70395390  0.66774974  0.11410275    -0.15200
C2124       C  0.68431590  0.65367393  0.08629985    -0.30300
H2125       H  0.71826945  0.65784282  0.12408281     0.13900
H2126       H  0.66857268  0.66198930  0.07670892     0.14400
C2127       C  0.80652651  0.83350163  0.23932747    -0.15200
C2128       C  0.80021781  0.84865405  0.26501150    -0.30300
H2129       H  0.83078170  0.84243672  0.23041685     0.13900
H2130       H  0.77577466  0.83900485  0.27371354     0.14400
C2131       C  0.68054184  0.70241159  0.25979722    -0.15200
C2132       C  0.66496511  0.70841441  0.28527740    -0.30300
H2133       H  0.67374666  0.67811869  0.25338337     0.13900
H2134       H  0.67293089  0.73287580  0.29231243     0.14400
C2135       C  0.73388770  0.85863298  0.12931749    -0.15200
C2136       C  0.75139153  0.88419413  0.14960385    -0.30300
H2137       H  0.71760880  0.85898934  0.10954676     0.13900
H2138       H  0.76719672  0.88315847  0.16957384     0.14400
C2139       C  0.62262512  0.73825055  0.15881347    -0.15200
C2140       C  0.60622477  0.74381232  0.13379100    -0.30300
H2141       H  0.61413214  0.73416989  0.18603663     0.13900
H2142       H  0.61580822  0.75006039  0.10705609     0.14400
O2143       O  0.74187742  0.79037896  0.74068158    -0.84100
O2144       O  0.74666681  0.82767739  0.68292534    -0.81100
C2145       C  0.74694371  0.83673571  0.65140615     0.99400
O2146       O  0.73565155  0.81680501  0.62603119    -0.81200
O2147       O  0.77700736  0.79342721  0.61690450    -0.83800
C2148       C  0.79289270  0.78059706  0.62691263     1.03900
O2149       O  0.78380230  0.76121697  0.65257398    -0.76600
O2150       O  0.78167836  0.78961017  0.71598202    -0.76800
C2151       C  0.77121653  0.80070215  0.73914160     1.03900
O2152       O  0.68321501  0.74220544  0.71399995    -0.84100
O2153       O  0.68352328  0.78313677  0.66329640    -0.81100
C2154       C  0.66811962  0.76026178  0.64273468     0.99400
O2155       O  0.68258663  0.75005932  0.62451016    -0.81200
O2156       O  0.72407111  0.72931897  0.61240959    -0.83800
C2157       C  0.71825393  0.70572282  0.63213625     1.03900
O2158       O  0.72307589  0.70879693  0.66533607    -0.76600
O2159       O  0.72013655  0.73119604  0.73125714    -0.76700
C2160       C  0.69143359  0.72512090  0.73118428     1.03800
Cr2161     Cr  0.71503936  0.78477113  0.69820013     1.93700
Cr2162     Cr  0.72998850  0.77236574  0.62331855     1.93200
Cr2163     Cr  0.75109711  0.74940198  0.69014637     1.39100
O2164       O  0.73216631  0.76859724  0.67010219    -1.21800
O2165       O  0.68500032  0.93758256  0.71060172    -0.84100
O2166       O  0.67890642  0.89774247  0.65711717    -0.81100
C2167       C  0.66093965  0.90257855  0.63690488     0.99400
O2168       O  0.67202277  0.92762766  0.61842925    -0.81200
O2169       O  0.71093102  0.99158269  0.60315172    -0.83800
C2170       C  0.71467314  0.51506207  0.63265330     1.03900
O2171       O  0.71962106  0.51733720  0.66582730    -0.76600
O2172       O  0.72446301  0.49875058  0.73465992    -0.76800
C2173       C  0.69391816  0.96260313  0.72806224     1.03900
O2174       O  0.74848375  0.95177956  0.72337026    -0.84100
O2175       O  0.74495039  0.91846364  0.66282736    -0.81100
C2176       C  0.73908836  0.90774360  0.63159583     0.99400
O2177       O  0.72516459  0.91683269  0.60971676    -0.81200
O2178       O  0.76531915  0.98188153  0.59952344    -0.83800
C2179       C  0.78942744  0.51512043  0.62452134     1.03900
O2180       O  0.78034419  0.52701537  0.64825365    -0.76600
O2181       O  0.78499343  0.50335191  0.71373576    -0.76700
C2182       C  0.77631882  0.97427613  0.71819603     1.03800
Cr2183     Cr  0.71528328  0.92890452  0.68627208     1.93700
Cr2184     Cr  0.71901633  0.95505853  0.61114302     1.93200
Cr2185     Cr  0.75103686  0.50861142  0.68969854     1.39100
O2186       O  0.72634531  0.96152418  0.65752504    -1.21800
O2187       O  0.55313748  0.74940594  0.72112861    -0.84100
O2188       O  0.57889352  0.74609682  0.65804668    -0.81100
C2189       C  0.58776200  0.74954498  0.62624188     0.99400
O2190       O  0.57526510  0.75925129  0.60345237    -0.81200
O2191       O  0.50967302  0.71573907  0.60613477    -0.83800
C2192       C  0.98533661  0.70740532  0.62691407     1.03900
O2193       O  0.97383010  0.71822209  0.64909639    -0.76600
O2194       O  0.00440091  0.71768056  0.71020697    -0.76800
C2195       C  0.52913699  0.72194231  0.72224841     1.03900
O2196       O  0.56547752  0.81112330  0.70186364    -0.84100
O2197       O  0.59709228  0.81124227  0.64297558    -0.81100
C2198       C  0.58899099  0.82492862  0.61981695     0.99400
O2199       O  0.56205630  0.81026918  0.60491361    -0.81200
O2200       O  0.49751827  0.76794785  0.60057308    -0.83800
C2201       C  0.98257408  0.78277991  0.63369961     1.03900
O2202       O  0.98314628  0.77911823  0.66681097    -0.76600
O2203       O  0.00757292  0.77714964  0.73191173    -0.76700
C2204       C  0.54253021  0.80544124  0.72171435     1.03800
Cr2205     Cr  0.57081072  0.77818251  0.67899873     1.93700
Cr2206     Cr  0.53584699  0.76306957  0.60749906     1.93200
Cr2207     Cr  0.99528187  0.74957354  0.68818743     1.39100
O2208       O  0.53489262  0.76344244  0.65485904    -1.21800
O2209       O  0.71020435  0.58779397  0.57192195    -0.84100
O2210       O  0.75300810  0.59255146  0.52187586    -0.81100
C2211       C  0.76500814  0.59077248  0.99650485     0.99400
O2212       O  0.75855958  0.60299143  0.97018797    -0.81200
O2213       O  0.69751918  0.55611044  0.95161351    -0.83800
C2214       C  0.66761029  0.53927664  0.95262557     1.03900
O2215       O  0.65118172  0.54757046  0.97105777    -0.76600
O2216       O  0.67214597  0.55414689  0.53795824    -0.76800
C2217       C  0.69056777  0.55949344  0.56409687     1.03900
O2218       O  0.72402091  0.65014957  0.55342210    -0.84100
O2219       O  0.77097901  0.65774317  0.50965182    -0.81100
C2220       C  0.75935756  0.66370173  0.98683363     0.99400
O2221       O  0.73849014  0.64947463  0.96316110    -0.81200
O2222       O  0.68019600  0.60300195  0.93657369    -0.83800
C2223       C  0.65982501  0.60911398  0.94926050     1.03900
O2224       O  0.65537242  0.60783274  0.98241755    -0.76600
O2225       O  0.67281906  0.61509160  0.55331701    -0.76700
C2226       C  0.69616319  0.64170893  0.56295415     1.03800
Cr2227     Cr  0.73738813  0.62093707  0.53640000     1.93700
Cr2228     Cr  0.71773605  0.60259521  0.95867449     1.93200
Cr2229     Cr  0.66835359  0.58774317  0.51025220     1.39100
O2230       O  0.70956813  0.60783135  0.50090717    -1.21800
O2231       O  0.91894899  0.62008506  0.57806228    -0.84100
O2232       O  0.92573319  0.66552718  0.53029252    -0.81100
C2233       C  0.92509716  0.67539799  0.99529152     0.99400
O2234       O  0.91581811  0.65825404  0.96782377    -0.81200
O2235       O  0.95634138  0.63325445  0.95659298    -0.83800
C2236       C  0.96852508  0.61580176  0.96186266     1.03900
O2237       O  0.95485588  0.59165519  0.98184222    -0.76600
O2238       O  0.95541734  0.61570811  0.55040305    -0.76800
C2239       C  0.94797855  0.62934821  0.57363719     1.03900
O2240       O  0.85763591  0.57815381  0.54916067    -0.84100
O2241       O  0.86225470  0.62514508  0.50553172    -0.81100
C2242       C  0.84741196  0.60523356  0.97696497     0.99400
O2243       O  0.86208063  0.59635552  0.95683182    -0.81200
O2244       O  0.90215222  0.57370054  0.94156572    -0.83800
C2245       C  0.89045685  0.54658927  0.95571714     1.03900
O2246       O  0.89010583  0.54311494  0.98915920    -0.76600
O2247       O  0.88985219  0.55953707  0.55908974    -0.76700
C2248       C  0.86283711  0.55748096  0.56293197     1.03800
Cr2249     Cr  0.89233905  0.62126225  0.53839496     1.93700
Cr2250     Cr  0.90910810  0.61478871  0.95920746     1.93200
Cr2251     Cr  0.92233008  0.58132912  0.51946684     1.39100
O2252       O  0.90837116  0.60722054  0.50598392    -1.21800
O2253       O  0.85593716  0.78323294  0.54745309    -0.84100
O2254       O  0.85545089  0.74368006  0.49614573    -0.79300
C2255       C  0.83043253  0.73927558  0.96874156     0.99400
O2256       O  0.84417681  0.76492522  0.95168994    -0.81200
O2257       O  0.88851745  0.82727488  0.93744407    -0.83800
C2258       C  0.88393429  0.84597301  0.95654294     1.03900
O2259       O  0.88833272  0.84716104  0.98970918    -0.76600
O2260       O  0.89132119  0.83216864  0.56140046    -0.76800
C2261       C  0.86340707  0.80855314  0.56371165     1.03900
O2262       O  0.91647533  0.79461481  0.57187416    -0.84100
O2263       O  0.91872988  0.75999009  0.51539650    -0.81100
C2264       C  0.90715790  0.74017517  0.97631835     0.99400
O2265       O  0.89386340  0.74815663  0.95240541    -0.81200
O2266       O  0.93715170  0.80968018  0.94296623    -0.83800
C2267       C  0.95637583  0.83763334  0.95175901     1.03900
O2268       O  0.94889782  0.85189682  0.97460459    -0.76600
O2269       O  0.95361991  0.83751443  0.54683327    -0.76700
C2270       C  0.94539130  0.81544738  0.56915957     1.03800
Cr2271     Cr  0.88794706  0.77292616  0.53053887     1.93700
Cr2272     Cr  0.89116498  0.78824223  0.94970700     1.93200
Cr2273     Cr  0.92209126  0.84470330  0.52047938     1.39100
O2274       O  0.89532784  0.79521537  0.99621511    -1.21800
O2275       O  0.88038500  0.91830284  0.89451455    -0.84100
O2276       O  0.91743883  0.92630830  0.83578244    -0.81100
C2277       C  0.92936664  0.93307858  0.80513092     0.99400
O2278       O  0.92172978  0.94827234  0.78350261    -0.81200
O2279       O  0.86085077  0.90313544  0.76749808    -0.83800
C2280       C  0.83306362  0.88169213  0.77511716     1.03900
O2281       O  0.81713596  0.88589731  0.79901641    -0.76600
O2282       O  0.84003753  0.88356087  0.86401005    -0.76800
C2283       C  0.86020646  0.88984424  0.88827415     1.03900
O2284       O  0.88838925  0.97907880  0.88170914    -0.84100
O2285       O  0.93185363  0.99104269  0.83033436    -0.81100
C2286       C  0.92490899  0.00740039  0.80988412     0.99400
O2287       O  0.90056093  0.99431147  0.79037061    -0.81200
O2288       O  0.84082549  0.94952222  0.76751390    -0.83800
C2289       C  0.82017484  0.95105773  0.78628821     1.03900
O2290       O  0.81699154  0.94339290  0.81868268    -0.76600
O2291       O  0.83799081  0.94167349  0.88603416    -0.76700
C2292       C  0.86120448  0.96873583  0.89490821     1.03800
Cr2293     Cr  0.90209340  0.95250341  0.85800775     1.93700
Cr2294     Cr  0.88018052  0.94818192  0.78084263     1.93200
Cr2295     Cr  0.83098632  0.91539530  0.84112843     1.39100
O2296       O  0.87068308  0.93889570  0.82659347    -1.21800
O2297       O  0.59546702  0.97794470  0.87268489    -0.84100
O2298       O  0.55343411  0.98297243  0.82882835    -0.81100
C2299       C  0.56806281  0.99445893  0.79991076     0.99400
O2300       O  0.57370886  0.97768319  0.77915665    -0.81200
O2301       O  0.58860309  0.93182430  0.76128055    -0.83800
C2302       C  0.61585957  0.94032942  0.77411776     1.03900
O2303       O  0.62018700  0.94026113  0.80733477    -0.76600
O2304       O  0.60829562  0.94095884  0.87973873    -0.76800
C2305       C  0.61335616  0.96876177  0.88608972     1.03900
O2306       O  0.54656484  0.91769349  0.89832939    -0.84100
O2307       O  0.50568917  0.91956691  0.85030230    -0.81100
C2308       C  0.49309767  0.91999086  0.82123004     0.99400
O2309       O  0.50944474  0.92945346  0.79317659    -0.81200
O2310       O  0.52564902  0.88335838  0.78009432    -0.83800
C2311       C  0.53985706  0.86764328  0.78201924     1.03900
O2312       O  0.56552410  0.87832005  0.79977880    -0.76600
O2313       O  0.54787564  0.88024303  0.86864505    -0.76700
C2314       C  0.53600147  0.88852946  0.89311315     1.03800
Cr2315     Cr  0.55109052  0.94825203  0.85996873     1.93700
Cr2316     Cr  0.55028588  0.93055262  0.78191837     1.93200
Cr2317     Cr  0.58398459  0.91138116  0.83846322     1.39100
O2318       O  0.56226620  0.93054227  0.82656905    -1.21800
O2319       O  0.53417903  0.61837590  0.90031038    -0.84100
O2320       O  0.50292714  0.58541662  0.83940142    -0.81100
C2321       C  0.49786624  0.57668334  0.80731778     0.99400
O2322       O  0.52052173  0.58773847  0.78533231    -0.81200
O2323       O  0.54431576  0.65270492  0.78025701    -0.83800
C2324       C  0.55826846  0.68151238  0.78925412     1.03900
O2325       O  0.57895415  0.69149705  0.81382269    -0.76600
O2326       O  0.54628525  0.66370892  0.87535944    -0.76800
C2327       C  0.53014438  0.64205706  0.89742535     1.03900
O2328       O  0.58430084  0.60493601  0.88545581    -0.84100
O2329       O  0.54936042  0.56694289  0.82987709    -0.81100
C2330       C  0.56938919  0.57189562  0.80585246     0.99400
O2331       O  0.58428633  0.59869175  0.79093059    -0.81200
O2332       O  0.60771559  0.66282777  0.78052810    -0.83800
C2333       C  0.63122812  0.67761886  0.80124564     1.03900
O2334       O  0.62727298  0.67705077  0.83439129    -0.76600
O2335       O  0.59798260  0.65374792  0.89957002    -0.76700
C2336       C  0.60087508  0.62941375  0.90377417     1.03800
Cr2337     Cr  0.54431777  0.59659113  0.86187682     1.93700
Cr2338     Cr  0.56430338  0.62597107  0.78790173     1.93200
Cr2339     Cr  0.58595780  0.66851950  0.85442207     1.39100
O2340       O  0.56497061  0.63042209  0.83461404    -1.21800
C2341       C  0.54742543  0.51599081  0.79421079    -0.15200
C2342       C  0.57347492  0.54498696  0.79514716    -0.30300
H2343       H  0.52428413  0.51428176  0.79670949     0.13900
H2344       H  0.59718666  0.54802130  0.79376190     0.14400
C2345       C  0.94924599  0.53755105  0.82165783    -0.15200
C2346       C  0.96993417  0.55291849  0.79525074    -0.30300
H2347       H  0.95462331  0.54756865  0.84819091     0.13900
H2348       H  0.96584352  0.54206978  0.76921215     0.14400
C2349       C  0.95514066  0.92678360  0.79626392    -0.15200
C2350       C  0.96304417  0.91046154  0.81899548    -0.30300
H2351       H  0.97121848  0.94063338  0.77495136     0.13900
H2352       H  0.94718774  0.89752474  0.84085916     0.14400
C2353       C  0.87600767  0.86884413  0.93981702    -0.15200
C2354       C  0.86150637  0.86399882  0.90798048    -0.30300
H2355       H  0.88362702  0.89106346  0.95355681     0.13900
H2356       H  0.85204892  0.84112068  0.89511873     0.14400
C2357       C  0.98693411  0.85353098  0.93267633    -0.15200
C2358       C  0.50823969  0.86442169  0.91368562    -0.30300
H2359       H  0.98994057  0.84098075  0.91064800     0.13900
H2360       H  0.49882260  0.83949762  0.90774240     0.14400
C2361       C  0.99745787  0.62077920  0.94303441    -0.15200
C2362       C  0.50583138  0.64369727  0.91945250    -0.30300
H2363       H  0.00461555  0.60320496  0.94819879     0.13900
H2364       H  0.49797479  0.66033220  0.91207024     0.14400
C2365       C  0.85757700  0.98941687  0.92091465    -0.15200
C2366       C  0.88097172  0.52042936  0.93090781    -0.30300
H2367       H  0.83867068  0.99497436  0.91720200     0.13900
H2368       H  0.88930068  0.52773412  0.90378819     0.14400
C2369       C  0.91671324  0.71656543  0.96873054    -0.15200
C2370       C  0.93052059  0.70780368  0.99408258    -0.30300
H2371       H  0.90742239  0.70266033  0.94466109     0.13900
H2372       H  0.93933230  0.72163144  0.01828853     0.14400
C2373       C  0.63920467  0.61387893  0.92380453    -0.15200
C2374       C  0.62315348  0.62907630  0.93074007    -0.30300
H2375       H  0.63702299  0.60392709  0.89748155     0.13900
H2376       H  0.62672837  0.64148882  0.95568006     0.14400
C2377       C  0.63900630  0.99069411  0.91081051    -0.15200
C2378       C  0.65088826  0.51157183  0.92913135    -0.30300
H2379       H  0.66197665  0.99194672  0.91126874     0.13900
H2380       H  0.66084548  0.49644557  0.92355581     0.14400
C2381       C  0.77960810  0.69806514  0.98755077    -0.15200
C2382       C  0.79787034  0.71451148  0.96014513    -0.30300
H2383       H  0.79638245  0.71808894  0.51224983     0.13900
H2384       H  0.79230122  0.70529497  0.93327587     0.14400
C2385       C  0.81434619  0.59700061  0.96968669    -0.15200
C2386       C  0.79396549  0.58824649  0.99705244    -0.30300
H2387       H  0.80783485  0.60124716  0.94337158     0.13900
H2388       H  0.80170963  0.58627070  0.51950526     0.14400
C2389       C  0.96948934  0.81225505  0.58991725    -0.15200
C2390       C  0.96158304  0.79373508  0.61896769    -0.30300
H2391       H  0.99339018  0.82269636  0.57919760     0.13900
H2392       H  0.93839527  0.78490065  0.63109648     0.14400
C2393       C  0.97253938  0.65814489  0.59245343    -0.15200
C2394       C  0.96373161  0.67550177  0.61216478    -0.30300
H2395       H  0.99753324  0.66686296  0.58714593     0.13900
H2396       H  0.43308889  0.66148594  0.61213692     0.14400
C2397       C  0.52821103  0.83828323  0.76050956    -0.15200
C2398       C  0.54886797  0.82938132  0.74940822    -0.30300
H2399       H  0.50408976  0.82659317  0.75004477     0.13900
H2400       H  0.57358331  0.84336637  0.75776530     0.14400
C2401       C  0.55289576  0.70495786  0.76968029    -0.15200
C2402       C  0.52958456  0.69735297  0.74549662    -0.30300
H2403       H  0.56999296  0.72980472  0.77439740     0.13900
H2404       H  0.51170265  0.67267779  0.74132458     0.14400
C2405       C  0.70609389  0.53753731  0.61545898    -0.15200
C2406       C  0.69119172  0.53296685  0.58376442    -0.30300
H2407       H  0.71401399  0.55987084  0.62906294     0.13900
H2408       H  0.68160069  0.51017518  0.57069914     0.14400
C2409       C  0.81680391  0.53773887  0.60250526    -0.15200
C2410       C  0.83738934  0.53182545  0.58492749    -0.30300
H2411       H  0.81233356  0.05794949  0.58658420     0.13900
H2412       H  0.83607193  0.50895722  0.58747613     0.14400
C2413       C  0.64104598  0.94666263  0.74859352    -0.15200
C2414       C  0.67236153  0.96266280  0.75535775    -0.30300
H2415       H  0.63295148  0.93677714  0.72221281     0.13900
H2416       H  0.68169309  0.97497334  0.78032499     0.14400
C2417       C  0.80284177  0.97488736  0.73854866    -0.15200
C2418       C  0.79740816  0.95911061  0.76967052    -0.30300
H2419       H  0.82628702  0.98598782  0.72656329     0.13900
H2420       H  0.77438174  0.94975907  0.78238671     0.14400
C2421       C  0.62705201  0.87832428  0.63741964    -0.15200
C2422       C  0.61243785  0.85810547  0.61055544    -0.30300
H2423       H  0.61718268  0.87079194  0.66392445     0.13900
H2424       H  0.62201580  0.86369906  0.58382304     0.14400
C2425       C  0.83941989  0.80984553  0.58645023    -0.15200
C2426       C  0.82060465  0.78467950  0.60677043    -0.30300
H2427       H  0.83709826  0.83091505  0.58641746     0.13900
H2428       H  0.82534226  0.76507658  0.60823760     0.14400
C2429       C  0.70927008  0.67476127  0.61580193    -0.15200
C2430       C  0.69205843  0.66406588  0.58562848    -0.30300
H2431       H  0.72018052  0.66180598  0.62706582     0.13900
H2432       H  0.67989583  0.67583765  0.57454100     0.14400
C2433       C  0.79149332  0.82626197  0.76404783    -0.15200
C2434       C  0.81866088  0.85199558  0.75411635    -0.30300
H2435       H  0.78059425  0.82686849  0.78891612     0.13900
H2436       H  0.82933239  0.85212740  0.72880190     0.14400
C2437       C  0.66671567  0.69784812  0.75034095    -0.15200
C2438       C  0.66294443  0.69811924  0.78561512    -0.30300
H2439       H  0.64731115  0.68056360  0.73401553     0.13900
H2440       H  0.68170579  0.71619312  0.80195190     0.14400
C2441       C  0.75740832  0.87056306  0.64645724    -0.15200
C2442       C  0.74380136  0.88083705  0.62262287    -0.30300
H2443       H  0.77046632  0.88581567  0.66865802     0.13900
H2444       H  0.73019187  0.86576777  0.60057563     0.14400
C2445       C  0.63344888  0.74473282  0.64355786    -0.15200
C2446       C  0.61649031  0.74794490  0.61724111    -0.30300
H2447       H  0.62327734  0.73821007  0.67000929     0.13900
H2448       H  0.62717030  0.75633726  0.59126497     0.14400
loop_ 
_geom_bond_atom_site_label_1 
_geom_bond_atom_site_label_2 
_geom_bond_distance 
_geom_bond_site_symmetry_2 
_ccdc_geom_bond_type 
O1          Cr19   1.990       .  S
O1            C9   1.256       .  A
O2          Cr19   1.972       .  S
O2            C3   1.265       .  A
C3            O4   1.272       .  A
C3          C299   1.481       .  S
O4          Cr20   2.033       .  S
O5          Cr20   1.980       .  S
O5            C6   1.261       .  A
C6            O7   1.267       .  A
C6          C284   1.476       .  S
O7          Cr21   2.005       .  S
O8          Cr21   1.999       .  S
O8            C9   1.254       .  A
C9          C291   1.486       .  S
O10         Cr19   1.966       .  S
O10          C18   1.264       .  A
O11         Cr19   1.982       .  S
O11          C12   1.260       .  A
C12          O13   1.256       .  A
C12         C303   1.478       .  S
O13         Cr20   1.999       .  S
O14         Cr20   1.997       .  S
O14          C15   1.264       .  A
C15          O16   1.257       .  A
C15         C287   1.468       .  S
O16         Cr21   1.971       .  S
O17         Cr21   2.042       .  S
O17          C18   1.277       .  A
C18         C295   1.490       .  S
Cr19         O22   1.769       .  S
Cr20         O22   1.782       .  S
Cr21         O22   1.776       .  S
O23         Cr41   1.957       .  S
O23          C31   1.259       .  A
O24         Cr41   2.006       .  S
O24          C25   1.265       .  A
C25          O26   1.260       .  A
C25         C279   1.480       .  S
O26         Cr42   1.991       .  S
O27         Cr42   2.027       .  S
O27         C640   1.274       .  A
C28          O29   1.258       .  A
C28         O639   1.274   1_545  A
C28         C263   1.476       .  S
O29         Cr43   1.963   1_545  S
O30         Cr43   2.033       .  S
O30         C643   1.271       .  A
C31         O642   1.267       .  A
C31         C272   1.475       .  S
O32         Cr41   2.006       .  S
O32          C40   1.264       .  A
O33         Cr41   1.958       .  S
O33          C34   1.255       .  A
C34          O35   1.272       .  A
C34         C300   1.471       .  S
O35         Cr42   2.034       .  S
O36         Cr42   2.001       .  S
O36         C649   1.262       .  A
C37          O38   1.266       .  A
C37         O648   1.262   1_545  A
C37         C267   1.475       .  S
O38         Cr43   2.006   1_545  S
O39         Cr43   1.984       .  S
O39         C652   1.257       .  A
C40         O651   1.260       .  A
C40         C275   1.472       .  S
Cr41         O44   1.759       .  S
Cr42         O44   1.777       .  S
Cr43        O656   1.765       .  S
O44        Cr655   1.771       .  S
O45         Cr63   1.951       .  S
O45          C53   1.260       .  A
O46         Cr63   1.982       .  S
O46          C47   1.257       .  A
C47          O48   1.258       .  A
C47         C304   1.459       .  S
O48         Cr64   1.996       .  S
O49         Cr64   2.031   1_655  S
O49        C1274   1.273       .  A
C50          O51   1.262       .  A
C50        O1273   1.262       .  A
C50         C252   1.484       .  S
O51         Cr65   2.000       .  S
O52         Cr65   1.995       .  S
O52        C1277   1.257       .  A
C53        O1276   1.275   1_455  A
C53         C260   1.478       .  S
O54         Cr63   1.993       .  S
O54          C62   1.258       .  A
O55         Cr63   1.966       .  S
O55          C56   1.261       .  A
C56          O57   1.278       .  A
C56         C280   1.481       .  S
O57         Cr64   2.052       .  S
O58         Cr64   1.977       .  S
O58        C1283   1.260   1_455  A
C59          O60   1.259       .  A
C59        O1282   1.268       .  A
C59         C248   1.462       .  S
O60         Cr65   1.968       .  S
O61         Cr65   2.029       .  S
O61        C1286   1.271       .  A
C62        O1285   1.258   1_455  A
C62         C256   1.484       .  S
Cr63         O66   1.763       .  S
Cr64         O66   1.775       .  S
Cr65       O1290   1.777       .  S
O66       Cr1289   1.775   1_455  S
O67         Cr85   1.992       .  S
O67          C75   1.256       .  A
O68         Cr85   1.963       .  S
O68         C375   1.258   1_554  A
C69          O70   1.268       .  A
C69         O374   1.259       .  A
C69         C244   1.468       .  S
O70         Cr86   2.013       .  S
O71         Cr86   2.003       .  S
O71          C72   1.266       .  A
C72          O73   1.263       .  A
C72         C236   1.468       .  S
O73        Cr393   1.988       .  S
O74         Cr87   2.002       .  S
O74          C75   1.256       .  A
C75         C264   1.481       .  S
O76         Cr85   1.944       .  S
O76          C84   1.257       .  A
O77         Cr85   1.983       .  S
O77         C384   1.259   1_554  A
C78          O79   1.261       .  A
C78         O383   1.257       .  A
C78         C239   1.458       .  S
O79         Cr86   1.999       .  S
O80         Cr86   1.994       .  S
O80          C81   1.264       .  A
C81          O82   1.266       .  A
C81         C231   1.475       .  S
O82        Cr393   1.994       .  S
O83         Cr87   2.030       .  S
O83          C84   1.272       .  A
C84         C288   1.469       .  S
Cr85         O88   1.769   1_554  S
Cr86        O394   1.775       .  S
Cr87        O379   1.985   1_554  S
Cr87        O388   1.978   1_554  S
Cr87         O88   1.771   1_554  S
O88        Cr392   1.778       .  S
O89        Cr107   1.987       .  S
O89          C97   1.258       .  A
O90        Cr107   1.963       .  S
O90         C397   1.254   1_554  A
C91          O92   1.265       .  A
C91         O396   1.254       .  A
C91         C228   1.464       .  S
O92        Cr108   2.007       .  S
O93        Cr108   1.987       .  S
O93          C94   1.265       .  A
C94          O95   1.261       .  A
C94         C219   1.463       .  S
O95        Cr415   1.985       .  S
O96        Cr109   2.010       .  S
O96          C97   1.261       .  A
C97         C251   1.490       .  S
O98        Cr107   1.959       .  S
O98         C106   1.259       .  A
O99        Cr107   1.990   1_556  S
O99         C406   1.264       .  A
C100        O101   1.259       .  A
C100        O405   1.264       .  A
C100        C243   1.467       .  S
O101       Cr108   1.984       .  S
O102       Cr108   1.980       .  S
O102        C103   1.262       .  A
C103        O104   1.269       .  A
C103        C224   1.468       .  S
O104       Cr415   2.006       .  S
O105       Cr109   2.032       .  S
O105        C106   1.271       .  A
C106        C268   1.480       .  S
Cr107       O110   1.765       .  S
Cr108       O416   1.769       .  S
Cr109       O401   1.994   1_554  S
Cr109       O410   2.004   1_554  S
Cr109       O110   1.770       .  S
O110       Cr414   1.774   1_554  S
O111       Cr129   1.967       .  S
O111        C119   1.259       .  A
O112       Cr129   1.972   1_556  S
O112        C419   1.259       .  A
C113        O114   1.255       .  A
C113        O418   1.263       .  A
C113        C240   1.472       .  S
O114       Cr130   1.983       .  S
O115       Cr130   1.997       .  S
O115        C116   1.265       .  A
C116        O117   1.256       .  A
C116        C211   1.461       .  S
O117       Cr437   1.961       .  S
O118       Cr131   2.041       .  S
O118        C119   1.273       .  A
C119        C283   1.476       .  S
O120       Cr129   1.993       .  S
O120        C128   1.259       .  A
O121       Cr129   1.971       .  S
O121        C428   1.264   1_554  A
C122        O123   1.267       .  A
C122        O427   1.261       .  A
C122        C227   1.468       .  S
O123       Cr130   2.012       .  S
O124       Cr130   1.966       .  S
O124        C125   1.255       .  A
C125        O126   1.275       .  A
C125        C215   1.490       .  S
O126       Cr437   2.040       .  S
O127       Cr131   1.983       .  S
O127        C128   1.255       .  A
C128        C247   1.464       .  S
Cr129       O438   1.755       .  S
Cr130       O132   1.780       .  S
Cr131       O423   1.967   1_554  S
Cr131       O432   2.010   1_554  S
Cr131       O438   1.765       .  S
O132       Cr435   1.763       .  S
O132       Cr437   1.772       .  S
O133       Cr151   1.979       .  S
O133        C141   1.255       .  A
O134       Cr151   1.959       .  S
O134        C135   1.260       .  A
C135        O136   1.270       .  A
C135        C207   1.472       .  S
O136       Cr152   2.022       .  S
O137       Cr152   2.005       .  S
O137        C138   1.265       .  A
C138        O139   1.261       .  A
C138        C292   1.476       .  S
O139       Cr153   1.987       .  S
O140       Cr153   1.998       .  S
O140        C141   1.258       .  A
C141        C212   1.469       .  S
O142       Cr151   1.957       .  S
O142        C150   1.263       .  A
O143       Cr151   1.989       .  S
O143        C144   1.256       .  A
C144        O145   1.263       .  A
C144        C815   1.475       .  S
O145       Cr152   2.012       .  S
O146       Cr152   2.000       .  S
O146        C147   1.268       .  A
C147        O148   1.264       .  A
C147        C276   1.472       .  S
O148       Cr153   1.980       .  S
O149       Cr153   2.030       .  S
O149        C150   1.269       .  A
C150        C223   1.469       .  S
Cr151       O154   1.760       .  S
Cr152       O154   1.771       .  S
Cr153       O154   1.771       .  S
O155       Cr173   1.963       .  S
O155        C163   1.259       .  A
O156       Cr173   1.984       .  S
O156        C157   1.264       .  A
C157        O158   1.260       .  A
C157        C811   1.465       .  S
O158       Cr174   1.986       .  S
O159       Cr174   1.981       .  S
O159        C160   1.261       .  A
C160        O161   1.267       .  A
C160        C271   1.464       .  S
O161       Cr175   2.001       .  S
O162       Cr175   2.043       .  S
O162        C163   1.274       .  A
C163        C235   1.489       .  S
O164       Cr173   1.980       .  S
O164        C172   1.256       .  A
O165       Cr173   1.972       .  S
O165        C166   1.255   1_455  A
C166        O167   1.264   1_655  A
C166       C1432   1.464       .  S
O167       Cr174   2.002       .  S
O168       Cr174   1.988       .  S
O168        C169   1.264       .  A
C169        O170   1.268       .  A
C169        C255   1.476       .  S
O170       Cr175   2.007       .  S
O171       Cr175   1.999       .  S
O171        C172   1.259       .  A
C172        C216   1.478       .  S
Cr173       O176   1.767       .  S
Cr174       O176   1.774       .  S
Cr175       O176   1.769       .  S
O177       Cr195   1.955       .  S
O177        C185   1.257       .  A
O178       Cr195   1.994       .  S
O178        C179   1.260       .  A
C179        O180   1.260       .  A
C179       C1428   1.463   1_455  S
O180       Cr196   1.998       .  S
O181       Cr196   1.996       .  S
O181        C182   1.265       .  A
C182        O183   1.264       .  A
C182        C259   1.471       .  S
O183       Cr197   1.996       .  S
O184       Cr197   2.029       .  S
O184        C185   1.272       .  A
C185        C220   1.468   1_455  S
O186       Cr195   1.994       .  S
O186        C194   1.257       .  A
O187       Cr195   1.965       .  S
O187        C188   1.256       .  A
C188        O189   1.270       .  A
C188        C200   1.468       .  S
O189       Cr196   2.024       .  S
O190       Cr196   2.000       .  S
O190        C191   1.266       .  A
C191        O192   1.269       .  A
C191        C296   1.486       .  S
O192       Cr197   2.014       .  S
O193       Cr197   2.002       .  S
O193        C194   1.263       .  A
C194        C232   1.470       .  S
Cr195       O198   1.764       .  S
Cr196       O198   1.771       .  S
Cr197       O198   1.766       .  S
C199        C769   1.467   1_545  S
C199        C200   1.342       .  D
C199        H201   1.086       .  S
C200        H202   1.089       .  S
C203        C756   1.475       .  S
C203        C204   1.345       .  D
C203        H205   1.088       .  S
C204       C1403   1.483       .  S
C204        H206   1.086       .  S
C207        C208   1.344       .  D
C207        H209   1.087       .  S
C208       C1390   1.464       .  S
C208        H210   1.088       .  S
C211        C212   1.343       .  D
C211        H213   1.088       .  S
C212        H214   1.086       .  S
C215       C1440   1.340       .  D
C215        H217   1.087       .  S
C216       C1439   1.349   1_455  D
C216        H218   1.087       .  S
C219       C1444   1.335       .  D
C219        H221   1.089       .  S
C220       C1443   1.340       .  D
C220        H222   1.088       .  S
C223        C836   1.334       .  D
C223        H225   1.086       .  S
C224        C835   1.339   1_545  D
C224        H226   1.089       .  S
C227        C228   1.341       .  D
C227        H229   1.087       .  S
C228        H230   1.088       .  S
C231        C232   1.337       .  D
C231        H233   1.088       .  S
C232        H234   1.087       .  S
C235        C848   1.350       .  D
C235        H237   1.086       .  S
C236        C847   1.345       .  D
C236        H238   1.088       .  S
C239        C240   1.337       .  D
C239        H547   1.089       .  S
C240        H242   1.086       .  S
H241        C545   1.089   1_554  S
C243        C244   1.344       .  D
C243        H245   1.086       .  S
C244        H552   1.088       .  S
H246        C550   1.089   1_554  S
C247        C248   1.340       .  D
C247        H249   1.087       .  S
C248        H250   1.087       .  S
C251        C252   1.350       .  D
C251        H253   1.086       .  S
C252       H1478   1.087       .  S
H254       C1476   1.087       .  S
C255        C256   1.348       .  D
C255        H257   1.087       .  S
C256        H258   1.086   1_455  S
C259        C260   1.344       .  D
C259        H261   1.089       .  S
C260        H262   1.086       .  S
C263        C264   1.342       .  D
C263        H265   1.088       .  S
C264        H266   1.086       .  S
C267        C268   1.346       .  D
C267        H881   1.088       .  S
C268        H270   1.086       .  S
H269        C879   1.088       .  S
C271        C272   1.337       .  D
C271        H273   1.089       .  S
C272        H274   1.086       .  S
C275        C276   1.345       .  D
C275        H277   1.087       .  S
C276        H278   1.087       .  S
C279        C280   1.344       .  D
C279        H281   1.086       .  S
C280        H282   1.088       .  S
C283        C284   1.345       .  D
C283        H285   1.086       .  S
C284        H286   1.087       .  S
C287        C288   1.342       .  D
C287        H289   1.088       .  S
C288        H290   1.086       .  S
C291        C292   1.345       .  D
C291        H293   1.086       .  S
C292        H294   1.087       .  S
C295        C296   1.348       .  D
C295        H297   1.086       .  S
C296        H298   1.088       .  S
C299        C300   1.342       .  D
C299        H301   1.087       .  S
C300        H302   1.088       .  S
C303        C304   1.341       .  D
C303        H305   1.086       .  S
C304        H306   1.089       .  S
O307       Cr325   1.976       .  S
O307        C315   1.254       .  A
O308       Cr325   1.965       .  S
O308        C309   1.260       .  A
C309        O310   1.274       .  A
C309        C605   1.470       .  S
O310       Cr326   2.030       .  S
O311       Cr326   2.021       .  S
O311        C312   1.268       .  A
C312        O313   1.265       .  A
C312        C590   1.489       .  S
O313       Cr327   1.999       .  S
O314       Cr327   2.005       .  S
O314        C315   1.257       .  A
C315        C597   1.478       .  S
O316       Cr325   1.959       .  S
O316        C324   1.259       .  A
O317       Cr325   1.979       .  S
O317        C318   1.255       .  A
C318        O319   1.264       .  A
C318        C609   1.478       .  S
O319       Cr326   2.022       .  S
O320       Cr326   2.013       .  S
O320        C321   1.271       .  A
C321        O322   1.260       .  A
C321        C593   1.471       .  S
O322       Cr327   1.968       .  S
O323       Cr327   2.036       .  S
O323        C324   1.274       .  A
C324        C601   1.468       .  S
Cr325       O328   1.767       .  S
Cr326       O328   1.774       .  S
Cr327       O328   1.771       .  S
O329       Cr347   1.956       .  S
O329        C337   1.261       .  A
O330       Cr347   1.993       .  S
O330        C331   1.260       .  A
C331        O332   1.261       .  A
C331        C585   1.473       .  S
O332       Cr348   2.005       .  S
O333       Cr348   2.011       .  S
O333        C946   1.270       .  A
C334        O945   1.268   1_545  A
C334        O335   1.263       .  A
C334        C569   1.484       .  S
O335       Cr349   1.985       .  S
O336       Cr349   2.019   1_565  S
O336        C949   1.270       .  A
C337        O948   1.268       .  A
C337        C578   1.470       .  S
O338       Cr347   1.997       .  S
O338        C346   1.260       .  A
O339       Cr347   1.963       .  S
O339        C340   1.261       .  A
C340        O341   1.271       .  A
C340        C606   1.477       .  S
O341       Cr348   2.028       .  S
O342       Cr348   1.998       .  S
O342        C955   1.263       .  A
C343        O954   1.263   1_545  A
C343        O344   1.262       .  A
C343        C573   1.465       .  S
O344       Cr349   1.987       .  S
O345       Cr349   2.010       .  S
O345        C958   1.261   1_545  A
C346        O957   1.260       .  A
C346        C581   1.472       .  S
Cr347       O350   1.759       .  S
Cr348       O350   1.776       .  S
Cr349       O962   1.770   1_545  S
O350       Cr961   1.771       .  S
O351       Cr369   1.997       .  S
O351        C359   1.262       .  A
O352       Cr369   1.981       .  S
O352        C353   1.265       .  A
C353        O354   1.268       .  A
C353        C610   1.492       .  S
O354       Cr370   2.023       .  S
O355       Cr370   2.016       .  S
O355       C1580   1.266   1_455  A
C356       O1579   1.272       .  A
C356        O357   1.257       .  A
C356        C558   1.479       .  S
O357       Cr371   1.968       .  S
O358       Cr371   2.028       .  S
O358       C1583   1.271       .  A
C359       O1582   1.258       .  A
C359        C566   1.480       .  S
O360       Cr369   1.983       .  S
O360        C368   1.261       .  A
O361       Cr369   1.978       .  S
O361        C362   1.261       .  A
C362        O363   1.264       .  A
C362        C586   1.485       .  S
O363       Cr370   2.007       .  S
O364       Cr370   2.017   1_655  S
O364       C1589   1.271       .  A
C365       O1588   1.262       .  A
C365        O366   1.265       .  A
C365        C554   1.475       .  S
O366       Cr371   2.004       .  S
O367       Cr371   1.988       .  S
O367       C1592   1.257       .  A
C368       O1591   1.268       .  A
C368        C562   1.492       .  S
Cr369       O372   1.774       .  S
Cr370       O372   1.787       .  S
Cr371      O1596   1.777       .  S
O372      Cr1595   1.782   1_455  S
O373       Cr391   1.993       .  S
O373        C381   1.258       .  A
O374       Cr391   1.970       .  S
C375        O376   1.271       .  A
C375        C550   1.465       .  S
O376       Cr392   2.020       .  S
O377       Cr392   1.971       .  S
O377        C378   1.258       .  A
C378        O379   1.263       .  A
C378        C542   1.459       .  S
O380       Cr393   2.011       .  S
O380        C381   1.263       .  A
C381        C570   1.487       .  S
O382       Cr391   1.957       .  S
O382        C390   1.256       .  A
O383       Cr391   1.973       .  S
C384        O385   1.256       .  A
C384        C545   1.456       .  S
O385       Cr392   1.979       .  S
O386       Cr392   1.997       .  S
O386        C387   1.264       .  A
C387        O388   1.263       .  A
C387        C537   1.470       .  S
O389       Cr393   2.023       .  S
O389        C390   1.269       .  A
C390        C594   1.465       .  S
Cr391       O394   1.766       .  S
Cr393       O394   1.766       .  S
O395       Cr413   1.991       .  S
O395        C403   1.259       .  A
O396       Cr413   1.966       .  S
C397        O398   1.268       .  A
C397        C534   1.467       .  S
O398       Cr414   2.018       .  S
O399       Cr414   1.982       .  S
O399        C400   1.261       .  A
C400        O401   1.264       .  A
C400        C525   1.467       .  S
O402       Cr415   2.003       .  S
O402        C403   1.259       .  A
C403        C557   1.485       .  S
O404       Cr413   1.950       .  S
O404        C412   1.256       .  A
O405       Cr413   1.992       .  S
C406        O407   1.258       .  A
C406        C549   1.464       .  S
O407       Cr414   1.980       .  S
O408       Cr414   1.995       .  S
O408        C409   1.266       .  A
C409        O410   1.268       .  A
C409        C530   1.473       .  S
O411       Cr415   2.028       .  S
O411        C412   1.269       .  A
C412        C574   1.477       .  S
Cr413       O416   1.765       .  S
Cr415       O416   1.772       .  S
O417       Cr435   1.958       .  S
O417        C425   1.261       .  A
O418       Cr435   1.984       .  S
C419        O420   1.259       .  A
C419        C546   1.469       .  S
O420       Cr436   1.997       .  S
O421       Cr436   2.004       .  S
O421        C422   1.268       .  A
C422        O423   1.259       .  A
C422        C517   1.464       .  S
O424       Cr437   2.063       .  S
O424        C425   1.281       .  A
C425        C589   1.498       .  S
O426       Cr435   1.994       .  S
O426        C434   1.258       .  A
O427       Cr435   1.965       .  S
C428        O429   1.268       .  A
C428        C533   1.472       .  S
O429       Cr436   2.015       .  S
O430       Cr436   1.987       .  S
O430        C431   1.261       .  A
C431        O432   1.268       .  A
C431        C521   1.478       .  S
O433       Cr437   1.989       .  S
O433        C434   1.255       .  A
C434        C553   1.478       .  S
Cr436       O438   1.772   1_556  S
O439       Cr457   1.983       .  S
O439        C447   1.256       .  A
O440       Cr457   1.975       .  S
O440        C441   1.262       .  A
C441        O442   1.266       .  A
C441        C513   1.469       .  S
O442       Cr458   2.006       .  S
O443       Cr458   1.991       .  S
O443        C444   1.262       .  A
C444        O445   1.263       .  A
C444        C598   1.466       .  S
O445       Cr459   1.989       .  S
O446       Cr459   1.998       .  S
O446        C447   1.258       .  A
C447        C518   1.470       .  S
O448       Cr457   1.956       .  S
O448        C456   1.261       .  A
O449       Cr457   1.985       .  S
O449        C450   1.258       .  A
C450        O451   1.262       .  A
C450       C1121   1.466       .  S
O451       Cr458   2.001       .  S
O452       Cr458   1.993       .  S
O452        C453   1.265       .  A
C453        O454   1.265       .  A
C453        C582   1.472       .  S
O454       Cr459   1.987       .  S
O455       Cr459   2.030       .  S
O455        C456   1.269       .  A
C456        C529   1.472       .  S
Cr457       O460   1.759       .  S
Cr458       O460   1.769       .  S
Cr459       O460   1.768       .  S
O461       Cr479   1.975       .  S
O461        C469   1.264       .  A
O462       Cr479   1.986       .  S
O462        C463   1.257       .  A
C463        O464   1.262       .  A
C463       C1117   1.475       .  S
O464       Cr480   2.013       .  S
O465       Cr480   1.977       .  S
O465        C466   1.262       .  A
C466        O467   1.269       .  A
C466        C577   1.463       .  S
O467       Cr481   1.998       .  S
O468       Cr481   2.033       .  S
O468        C469   1.272       .  A
C469        C541   1.488       .  S
O470       Cr479   1.989       .  S
O470        C478   1.253       .  A
O471       Cr479   1.969       .  S
O471        C472   1.260   1_455  A
C472        O473   1.268   1_655  A
C472       C1738   1.462       .  S
O473       Cr480   2.008       .  S
O474       Cr480   2.015       .  S
O474        C475   1.267       .  A
C475        O476   1.260       .  A
C475        C561   1.489       .  S
O476       Cr481   1.993       .  S
O477       Cr481   2.031       .  S
O477        C478   1.266       .  A
C478        C522   1.489       .  S
Cr479       O482   1.771       .  S
Cr480       O482   1.779       .  S
Cr481       O482   1.771       .  S
O483       Cr501   1.996       .  S
O483        C491   1.261       .  A
O484       Cr501   1.970       .  S
O484        C485   1.259       .  A
C485        O486   1.265       .  A
C485       C1734   1.472   1_455  S
O486       Cr502   2.015       .  S
O487       Cr502   1.987       .  S
O487        C488   1.263       .  A
C488        O489   1.266       .  A
C488        C565   1.476       .  S
O489       Cr503   2.006       .  S
O490       Cr503   1.995       .  S
O490        C491   1.259       .  A
C491        C526   1.481       .  S
O492       Cr501   1.959       .  S
O492        C500   1.259       .  A
O493       Cr501   2.010       .  S
O493        C494   1.266       .  A
C494        O495   1.261       .  A
C494        C506   1.477       .  S
O495       Cr502   1.995       .  S
O496       Cr502   1.998       .  S
O496        C497   1.265       .  A
C497        O498   1.261       .  A
C497        C602   1.476       .  S
O498       Cr503   1.985       .  S
O499       Cr503   2.022       .  S
O499        C500   1.270       .  A
C500        C538   1.465       .  S
Cr501       O504   1.767       .  S
Cr502       O504   1.774       .  S
Cr503       O504   1.774       .  S
C505       C1075   1.470   1_545  S
C505        C506   1.342       .  D
C505        H507   1.088       .  S
C506        H508   1.086       .  S
C509       C1062   1.471       .  S
C509        C510   1.340       .  D
C509        H511   1.086       .  S
C510       C1709   1.481       .  S
C510        H512   1.088       .  S
C513        C514   1.340       .  D
C513        H515   1.087       .  S
C514       C1696   1.466       .  S
C514        H516   1.088       .  S
C517        C518   1.343       .  D
C517        H519   1.088       .  S
C518        H520   1.087       .  S
C521       C1746   1.352       .  D
C521        H523   1.087       .  S
C522       C1745   1.345   1_455  D
C522        H524   1.087       .  S
C525       C1750   1.345       .  D
C525        H527   1.088       .  S
C526       C1749   1.347   1_455  D
C526        H528   1.086   1_455  S
C529       C1142   1.338       .  D
C529        H531   1.086       .  S
C530       C1141   1.345   1_545  D
C530        H532   1.088       .  S
C533        C534   1.339       .  D
C533        H535   1.087       .  S
C534        H536   1.088   1_556  S
C537        C538   1.338       .  D
C537        H539   1.087       .  S
C538        H540   1.087       .  S
C541       C1154   1.344       .  D
C541        H543   1.086       .  S
C542       C1153   1.334       .  D
C542        H544   1.087       .  S
C545        C546   1.342       .  D
C546        H548   1.086       .  S
C549        C550   1.340       .  D
C549        H551   1.086       .  S
C553        C554   1.346       .  D
C553        H555   1.086       .  S
C554        H556   1.087       .  S
C557        C558   1.344       .  D
C557        H559   1.086       .  S
C558       H1784   1.087       .  S
H560       C1782   1.087       .  S
C561        C562   1.345       .  D
C561        H563   1.088       .  S
C562        H564   1.086   1_455  S
C565        C566   1.346       .  D
C565        H567   1.087       .  S
C566        H568   1.086       .  S
C569        C570   1.350       .  D
C569        H571   1.087       .  S
C570        H572   1.086       .  S
C573        C574   1.343       .  D
C573       H1187   1.088       .  S
C574        H576   1.086       .  S
H575       C1185   1.088       .  S
C577        C578   1.336       .  D
C577        H579   1.089       .  S
C578        H580   1.086       .  S
C581        C582   1.348       .  D
C581        H583   1.087       .  S
C582        H584   1.087       .  S
C585        C586   1.347       .  D
C585        H587   1.088       .  S
C586        H588   1.086       .  S
C589        C590   1.354       .  D
C589        H591   1.086       .  S
C590        H592   1.088       .  S
C593        C594   1.339       .  D
C593        H595   1.088       .  S
C594        H596   1.086       .  S
C597        C598   1.346       .  D
C597        H599   1.086       .  S
C598        H600   1.087       .  S
C601        C602   1.343       .  D
C601        H603   1.086       .  S
C602        H604   1.087       .  S
C605        C606   1.344       .  D
C605        H607   1.088       .  S
C606        H608   1.087       .  S
C609        C610   1.344       .  D
C609        H611   1.087       .  S
C610        H612   1.086       .  S
O613       Cr631   1.990       .  S
O613        C621   1.260       .  A
O614       Cr631   1.973       .  S
O614        C615   1.261       .  A
C615        O616   1.268       .  A
C615        C911   1.482       .  S
O616       Cr632   2.028       .  S
O617       Cr632   1.991       .  S
O617        C618   1.264       .  A
C618        O619   1.264       .  A
C618        C896   1.469       .  S
O619       Cr633   2.000       .  S
O620       Cr633   2.005       .  S
O620        C621   1.260       .  A
C621        C903   1.488       .  S
O622       Cr631   1.959       .  S
O622        C630   1.259       .  A
O623       Cr631   2.000       .  S
O623        C624   1.264       .  A
C624        O625   1.259       .  A
C624        C915   1.476       .  S
O625       Cr632   1.995       .  S
O626       Cr632   1.998       .  S
O626        C627   1.266       .  A
C627        O628   1.261       .  A
C627        C899   1.470       .  S
O628       Cr633   1.981       .  S
O629       Cr633   2.028       .  S
O629        C630   1.271       .  A
C630        C907   1.469       .  S
Cr631       O634   1.763       .  S
Cr632       O634   1.771       .  S
Cr633       O634   1.775       .  S
O635       Cr653   1.948       .  S
O635        C643   1.253       .  A
O636       Cr653   2.009       .  S
O636        C637   1.264       .  A
C637        O638   1.259       .  A
C637        C891   1.473       .  S
O638       Cr654   1.990       .  S
O639       Cr654   2.034       .  S
C640        O641   1.262       .  A
C640        C875   1.473       .  S
O641       Cr655   1.968       .  S
O642       Cr655   2.029       .  S
C643        C884   1.460       .  S
O644       Cr653   2.018       .  S
O644        C652   1.264       .  A
O645       Cr653   1.956       .  S
O645        C646   1.255       .  A
C646        O647   1.276       .  A
C646        C912   1.473       .  S
O647       Cr654   2.048       .  S
O648       Cr654   1.991       .  S
C649        O650   1.263       .  A
C649        C879   1.480       .  S
O650       Cr655   2.003       .  S
O651       Cr655   1.986       .  S
C652        C887   1.477       .  S
Cr653       O656   1.759       .  S
Cr654       O656   1.770       .  S
O657       Cr675   1.962       .  S
O657        C665   1.261       .  A
O658       Cr675   1.988       .  S
O658        C659   1.257       .  A
C659        O660   1.259       .  A
C659        C916   1.465       .  S
O660       Cr676   1.999       .  S
O661       Cr676   2.028       .  S
O661       C1886   1.273   1_455  A
C662       O1885   1.264       .  A
C662        O663   1.260       .  A
C662        C864   1.479       .  S
O663       Cr677   1.988       .  S
O664       Cr677   2.003       .  S
O664       C1889   1.259       .  A
C665       O1888   1.269       .  A
C665        C872   1.471       .  S
O666       Cr675   1.995       .  S
O666        C674   1.260       .  A
O667       Cr675   1.967       .  S
O667        C668   1.259       .  A
C668        O669   1.275       .  A
C668        C892   1.476       .  S
O669       Cr676   2.041       .  S
O670       Cr676   1.999       .  S
O670       C1895   1.264   1_455  A
C671       O1894   1.269       .  A
C671        O672   1.261       .  A
C671        C860   1.468       .  S
O672       Cr677   1.972       .  S
O673       Cr677   2.020       .  S
O673       C1898   1.269       .  A
C674       O1897   1.260       .  A
C674        C868   1.482       .  S
Cr675       O678   1.764       .  S
Cr676       O678   1.775       .  S
Cr677      O1902   1.777       .  S
O678      Cr1901   1.774   1_455  S
O679       Cr697   1.992       .  S
O679        C687   1.260       .  A
O680       Cr697   1.970       .  S
O680        C987   1.259   1_554  A
C681        O986   1.260       .  A
C681        O682   1.273       .  A
C681        C856   1.477       .  S
O682       Cr698   2.038       .  S
O683       Cr698   2.002       .  S
O683        C684   1.266       .  A
C684        O685   1.269       .  A
C684        C848   1.483       .  S
O685      Cr1005   2.012       .  S
O686       Cr699   2.001       .  S
O686        C687   1.261       .  A
C687        C876   1.477       .  S
O688       Cr697   1.960       .  S
O688        C696   1.257       .  A
O689       Cr697   1.982       .  S
O689        C996   1.261   1_554  A
C690        O995   1.259       .  A
C690        O691   1.262       .  A
C690        C851   1.466       .  S
O691       Cr698   2.005       .  S
O692       Cr698   2.018       .  S
O692        C693   1.270       .  A
C693        O694   1.262       .  A
C693        C843   1.480       .  S
O694      Cr1005   1.978       .  S
O695       Cr699   2.020       .  S
O695        C696   1.267       .  A
C696        C900   1.468       .  S
Cr697       O700   1.765       .  S
Cr698      O1006   1.777       .  S
Cr699       O991   1.996   1_554  S
Cr699      O1000   1.982   1_554  S
Cr699       O700   1.771       .  S
O700      Cr1004   1.777   1_554  S
O701       Cr719   1.984       .  S
O701        C709   1.258       .  A
O702       Cr719   1.971       .  S
O702       C1009   1.256   1_554  A
C703       O1008   1.254       .  A
C703        O704   1.263       .  A
C703        C840   1.459       .  S
O704       Cr720   1.997       .  S
O705       Cr720   2.004       .  S
O705        C706   1.267       .  A
C706        O707   1.263       .  A
C706        C831   1.479       .  S
O707      Cr1027   1.992       .  S
O708       Cr721   2.006       .  S
O708        C709   1.259       .  A
C709        C863   1.487       .  S
O710       Cr719   1.963       .  S
O710        C718   1.258       .  A
O711       Cr719   1.990       .  S
O711       C1018   1.263   1_554  A
C712       O1017   1.264       .  A
C712        O713   1.263       .  A
C712        C855   1.477       .  S
O713       Cr720   1.997       .  S
O714       Cr720   1.972       .  S
O714        C715   1.260       .  A
C715        O716   1.268       .  A
C715        C836   1.463       .  S
O716      Cr1027   2.000       .  S
O717       Cr721   2.037       .  S
O717        C718   1.272       .  A
C718        C880   1.486       .  S
Cr719       O722   1.768       .  S
Cr720      O1028   1.777       .  S
Cr721      O1013   1.995   1_554  S
Cr721      O1022   1.996   1_554  S
Cr721       O722   1.774       .  S
O722      Cr1026   1.774   1_554  S
O723       Cr741   1.958       .  S
O723        C731   1.261       .  A
O724       Cr741   1.976   1_556  S
O724       C1031   1.258       .  A
C725       O1030   1.261       .  A
C725        O726   1.258       .  A
C725        C852   1.480       .  S
O726       Cr742   1.997       .  S
O727       Cr742   2.002       .  S
O727        C728   1.267       .  A
C728        O729   1.261       .  A
C728        C823   1.471       .  S
O729      Cr1049   1.973       .  S
O730       Cr743   2.031       .  S
O730        C731   1.273       .  A
C731        C895   1.475       .  S
O732       Cr741   1.987       .  S
O732        C740   1.254       .  A
O733       Cr741   1.968       .  S
O733       C1040   1.263   1_554  A
C734       O1039   1.262       .  A
C734        O735   1.268       .  A
C734        C839   1.464       .  S
O735       Cr742   2.012       .  S
O736       Cr742   1.978       .  S
O736        C737   1.257       .  A
C737        O738   1.271       .  A
C737        C827   1.489       .  S
O738      Cr1049   2.023       .  S
O739       Cr743   1.996       .  S
O739        C740   1.256       .  A
C740        C859   1.472       .  S
Cr741      O1050   1.765   1_554  S
Cr742       O744   1.781       .  S
Cr743      O1035   1.965   1_554  S
Cr743      O1044   2.001   1_554  S
Cr743      O1050   1.769   1_554  S
O744      Cr1047   1.762       .  S
O744      Cr1049   1.770       .  S
O745       Cr763   1.989       .  S
O745        C753   1.257       .  A
O746       Cr763   1.961       .  S
O746        C747   1.260       .  A
C747        O748   1.268       .  A
C747        C819   1.471       .  S
O748       Cr764   2.017       .  S
O749       Cr764   2.007       .  S
O749        C750   1.265       .  A
C750        O751   1.262       .  A
C750        C904   1.477       .  S
O751       Cr765   1.989       .  S
O752       Cr765   1.996       .  S
O752        C753   1.258       .  A
C753        C824   1.475       .  S
O754       Cr763   1.956       .  S
O754        C762   1.262       .  A
O755       Cr763   1.990       .  S
O755        C756   1.258   1_565  A
C756        O757   1.265   1_545  A
O757       Cr764   2.012       .  S
O758       Cr764   2.007       .  S
O758        C759   1.270       .  A
C759        O760   1.265       .  A
C759        C888   1.479       .  S
O760       Cr765   1.984       .  S
O761       Cr765   2.036       .  S
O761        C762   1.270       .  A
C762        C835   1.480       .  S
Cr763       O766   1.763       .  S
Cr764       O766   1.775       .  S
Cr765       O766   1.772       .  S
O767       Cr785   1.951       .  S
O767        C775   1.256       .  A
O768       Cr785   1.997       .  S
O768        C769   1.265       .  A
C769        O770   1.256       .  A
O770       Cr786   1.979       .  S
O771       Cr786   2.006       .  S
O771        C772   1.271       .  A
C772        O773   1.260       .  A
C772        C883   1.475       .  S
O773       Cr787   1.976       .  S
O774       Cr787   2.036       .  S
O774        C775   1.270       .  A
C775        C847   1.484   1_565  S
O776       Cr785   1.998       .  S
O776        C784   1.263       .  A
O777       Cr785   1.963       .  S
O777        C778   1.256       .  A
C778        O779   1.270       .  A
C778       C2044   1.473   1_455  S
O779       Cr786   2.032       .  S
O780       Cr786   1.983       .  S
O780        C781   1.261       .  A
C781        O782   1.268       .  A
C781        C867   1.476       .  S
O782       Cr787   2.011       .  S
O783       Cr787   1.989       .  S
O783        C784   1.259       .  A
C784        C828   1.480       .  S
Cr785       O788   1.756       .  S
Cr786       O788   1.771       .  S
Cr787       O788   1.771       .  S
O789       Cr807   1.959       .  S
O789        C797   1.257       .  A
O790       Cr807   1.999       .  S
O790        C791   1.268       .  A
C791        O792   1.261       .  A
C791       C2040   1.478   1_455  S
O792       Cr808   1.986       .  S
O793       Cr808   1.996       .  S
O793        C794   1.264       .  A
C794        O795   1.266       .  A
C794        C871   1.465       .  S
O795       Cr809   1.990       .  S
O796       Cr809   2.029       .  S
O796        C797   1.267       .  A
C797        C832   1.479       .  S
O798       Cr807   2.008       .  S
O798        C806   1.264       .  A
O799       Cr807   1.964       .  S
O799        C800   1.255       .  A
C800        O801   1.263       .  A
C800        C812   1.462       .  S
O801       Cr808   2.005       .  S
O802       Cr808   1.993       .  S
O802        C803   1.263       .  A
C803        O804   1.266       .  A
C803        C908   1.484       .  S
O804       Cr809   2.000       .  S
O805       Cr809   1.990       .  S
O805        C806   1.260       .  A
C806        C844   1.481       .  S
Cr807       O810   1.765       .  S
Cr808       O810   1.779       .  S
Cr809       O810   1.770       .  S
C811        C812   1.342       .  D
C811        H813   1.086       .  S
C812        H814   1.089       .  S
C815        C816   1.343       .  D
C815        H817   1.086       .  S
C816       C2015   1.484       .  S
C816        H818   1.087       .  S
C819        C820   1.342       .  D
C819        H821   1.087       .  S
C820       C2002   1.463       .  S
C820        H822   1.087       .  S
C823        C824   1.345       .  D
C823        H825   1.087       .  S
C824        H826   1.086       .  S
C827       C2052   1.343       .  D
C827        H829   1.087       .  S
C828       C2051   1.344   1_455  D
C828        H830   1.087       .  S
C831       C2056   1.343       .  D
C831        H833   1.087       .  S
C832       C2055   1.345   1_455  D
C832        H834   1.086       .  S
C835        H837   1.086       .  S
C836        H838   1.090       .  S
C839        C840   1.340       .  D
C839        H841   1.087       .  S
C840        H842   1.087       .  S
C843        C844   1.345       .  D
C843        H845   1.087       .  S
C844        H846   1.087       .  S
C847        H849   1.086   1_545  S
C848        H850   1.088       .  S
C851        C852   1.342       .  D
C851       H1159   1.089       .  S
C852        H854   1.086       .  S
H853       C1157   1.089   1_554  S
C855        C856   1.346       .  D
C855        H857   1.086       .  S
C856       H1164   1.088       .  S
H858       C1162   1.089   1_554  S
C859        C860   1.343       .  D
C859        H861   1.087       .  S
C860        H862   1.087       .  S
C863        C864   1.348       .  D
C863        H865   1.086       .  S
C864       H2090   1.087       .  S
H866       C2088   1.087       .  S
C867        C868   1.349       .  D
C867        H869   1.087       .  S
C868        H870   1.086       .  S
C871        C872   1.338       .  D
C871        H873   1.088       .  S
C872        H874   1.086       .  S
C875        C876   1.344       .  D
C875        H877   1.088       .  S
C876        H878   1.086       .  S
C879        C880   1.348       .  D
C880        H882   1.086       .  S
C883        C884   1.338       .  D
C883        H885   1.087       .  S
C884        H886   1.087       .  S
C887        C888   1.344       .  D
C887        H889   1.087       .  S
C888        H890   1.087       .  S
C891        C892   1.344       .  D
C891        H893   1.086       .  S
C892        H894   1.088       .  S
C895        C896   1.341       .  D
C895        H897   1.086       .  S
C896        H898   1.088       .  S
C899        C900   1.341       .  D
C899        H901   1.087       .  S
C900        H902   1.087       .  S
C903        C904   1.347       .  D
C903        H905   1.086       .  S
C904        H906   1.087       .  S
C907        C908   1.347       .  D
C907        H909   1.087       .  S
C908        H910   1.087       .  S
C911        C912   1.342       .  D
C911        H913   1.087       .  S
C912        H914   1.088       .  S
C915        C916   1.340       .  D
C915        H917   1.086       .  S
C916        H918   1.088       .  S
O919       Cr937   1.977       .  S
O919        C927   1.253       .  A
O920       Cr937   1.965       .  S
O920        C921   1.258       .  A
C921        O922   1.274       .  A
C921       C1217   1.472       .  S
O922       Cr938   2.030       .  S
O923       Cr938   1.983       .  S
O923        C924   1.262       .  A
C924        O925   1.271       .  A
C924       C1202   1.483       .  S
O925       Cr939   2.026       .  S
O926       Cr939   2.022       .  S
O926        C927   1.260       .  A
C927       C1209   1.491       .  S
O928       Cr937   1.954       .  S
O928        C936   1.258       .  A
O929       Cr937   1.978       .  S
O929        C930   1.256       .  A
C930        O931   1.260       .  A
C930       C1221   1.463       .  S
O931       Cr938   1.999       .  S
O932       Cr938   2.003       .  S
O932        C933   1.266       .  A
C933        O934   1.265       .  A
C933       C1205   1.478       .  S
O934       Cr939   2.002       .  S
O935       Cr939   2.054       .  S
O935        C936   1.280       .  A
C936       C1213   1.483       .  S
Cr937       O940   1.773       .  S
Cr938       O940   1.773       .  S
Cr939       O940   1.771       .  S
O941       Cr959   1.954       .  S
O941        C949   1.258       .  A
O942       Cr959   1.983       .  S
O942        C943   1.258       .  A
C943        O944   1.263       .  A
C943       C1197   1.466       .  S
O944       Cr960   2.004       .  S
O945       Cr960   2.017       .  S
C946        O947   1.261       .  A
C946       C1181   1.473       .  S
O947       Cr961   1.975       .  S
O948       Cr961   2.029       .  S
C949       C1190   1.463       .  S
O950       Cr959   1.995       .  S
O950        C958   1.256       .  A
O951       Cr959   1.972       .  S
O951        C952   1.263       .  A
C952        O953   1.269       .  A
C952       C1218   1.476       .  S
O953       Cr960   2.020       .  S
O954       Cr960   1.995       .  S
C955        O956   1.264       .  A
C955       C1185   1.476       .  S
O956       Cr961   2.001       .  S
O957       Cr961   1.994       .  S
C958       C1193   1.485       .  S
Cr959       O962   1.771       .  S
Cr960       O962   1.778       .  S
O963       Cr981   2.000       .  S
O963        C971   1.264       .  A
O964       Cr981   1.970       .  S
O964        C965   1.260       .  A
C965        O966   1.263       .  A
C965       C1222   1.479       .  S
O966       Cr982   2.011       .  S
O967       Cr982   2.004       .  S
O967       C2192   1.262   1_455  A
C968       O2191   1.266       .  A
C968        O969   1.270       .  A
C968       C1170   1.488       .  S
O969       Cr983   2.016       .  S
O970       Cr983   1.996       .  S
O970       C2195   1.259       .  A
C971       O2194   1.258       .  A
C971       C1178   1.480       .  S
O972       Cr981   1.973       .  S
O972        C980   1.260       .  A
O973       Cr981   1.995       .  S
O973        C974   1.266       .  A
C974        O975   1.261       .  A
C974       C1198   1.477       .  S
O975       Cr982   1.990       .  S
O976       Cr982   2.010   1_655  S
O976       C2201   1.270       .  A
C977       O2200   1.267       .  A
C977        O978   1.261       .  A
C977       C1166   1.474       .  S
O978       Cr983   1.981       .  S
O979       Cr983   2.048       .  S
O979       C2204   1.275       .  A
C980       O2203   1.268       .  A
C980       C1174   1.482       .  S
Cr981       O984   1.768       .  S
Cr982       O984   1.782       .  S
Cr983      O2208   1.774       .  S
O984      Cr2207   1.776   1_455  S
O985      Cr1003   2.000       .  S
O985        C993   1.259       .  A
O986      Cr1003   1.968       .  S
C987        O988   1.268       .  A
C987       C1162   1.473       .  S
O988      Cr1004   2.019       .  S
O989      Cr1004   2.011       .  S
O989        C990   1.266       .  A
C990        O991   1.262       .  A
C990       C1154   1.480       .  S
O992      Cr1005   1.990       .  S
O992        C993   1.256       .  A
C993       C1182   1.474       .  S
O994      Cr1003   1.952       .  S
O994       C1002   1.256       .  A
O995      Cr1003   1.980       .  S
C996        O997   1.263       .  A
C996       C1157   1.469       .  S
O997      Cr1004   2.001       .  S
O998      Cr1004   2.001       .  S
O998        C999   1.270       .  A
C999       O1000   1.261       .  A
C999       C1149   1.474       .  S
O1001     Cr1005   2.053       .  S
O1001      C1002   1.275       .  A
C1002      C1206   1.485       .  S
Cr1003     O1006   1.763       .  S
Cr1005     O1006   1.769       .  S
O1007     Cr1025   1.992       .  S
O1007      C1015   1.259       .  A
O1008     Cr1025   1.965       .  S
C1009      O1010   1.267       .  A
C1009      C1146   1.472       .  S
O1010     Cr1026   2.015       .  S
O1011     Cr1026   1.995       .  S
O1011      C1012   1.265       .  A
C1012      O1013   1.264       .  A
C1012      C1137   1.475       .  S
O1014     Cr1027   2.008       .  S
O1014      C1015   1.261       .  A
C1015      C1169   1.492       .  S
O1016     Cr1025   1.962       .  S
O1016      C1024   1.258       .  A
O1017     Cr1025   1.995       .  S
C1018      O1019   1.261       .  A
C1018      C1161   1.472       .  S
O1019     Cr1026   1.991       .  S
O1020     Cr1026   1.986       .  S
O1020      C1021   1.263       .  A
C1021      O1022   1.267       .  A
C1021      C1142   1.465       .  S
O1023     Cr1027   2.031       .  S
O1023      C1024   1.270       .  A
C1024      C1186   1.483       .  S
Cr1025     O1028   1.770       .  S
Cr1027     O1028   1.772       .  S
O1029     Cr1047   1.962       .  S
O1029      C1037   1.260       .  A
O1030     Cr1047   1.981       .  S
C1031      O1032   1.263       .  A
C1031      C1158   1.484       .  S
O1032     Cr1048   2.014       .  S
O1033     Cr1048   2.020       .  S
O1033      C1034   1.270       .  A
C1034      O1035   1.258       .  A
C1034      C1129   1.473       .  S
O1036     Cr1049   2.059       .  S
O1036      C1037   1.279       .  A
C1037      C1201   1.486       .  S
O1038     Cr1047   2.004       .  S
O1038      C1046   1.257       .  A
O1039     Cr1047   1.959       .  S
C1040      O1041   1.272       .  A
C1040      C1145   1.476       .  S
O1041     Cr1048   2.028       .  S
O1042     Cr1048   1.999       .  S
O1042      C1043   1.264       .  A
C1043      O1044   1.265       .  A
C1043      C1133   1.483       .  S
O1045     Cr1049   1.988       .  S
O1045      C1046   1.254       .  A
C1046      C1165   1.475       .  S
Cr1048     O1050   1.776       .  S
O1051     Cr1069   1.997       .  S
O1051      C1059   1.259       .  A
O1052     Cr1069   1.957       .  S
O1052      C1053   1.258       .  A
C1053      O1054   1.268       .  A
C1053      C1125   1.469       .  S
O1054     Cr1070   2.019       .  S
O1055     Cr1070   2.002       .  S
O1055      C1056   1.264       .  A
C1056      O1057   1.267       .  A
C1056      C1210   1.483       .  S
O1057     Cr1071   2.004       .  S
O1058     Cr1071   1.995       .  S
O1058      C1059   1.256       .  A
C1059      C1130   1.478       .  S
O1060     Cr1069   1.949       .  S
O1060      C1068   1.258       .  A
O1061     Cr1069   1.993       .  S
O1061      C1062   1.260   1_565  A
C1062      O1063   1.264   1_545  A
O1063     Cr1070   2.005       .  S
O1064     Cr1070   2.013       .  S
O1064      C1065   1.269       .  A
C1065      O1066   1.265       .  A
C1065      C1194   1.483       .  S
O1066     Cr1071   1.987       .  S
O1067     Cr1071   2.047       .  S
O1067      C1068   1.274       .  A
C1068      C1141   1.483       .  S
Cr1069     O1072   1.762       .  S
Cr1070     O1072   1.773       .  S
Cr1071     O1072   1.767       .  S
O1073     Cr1091   1.968       .  S
O1073      C1081   1.263       .  A
O1074     Cr1091   1.982       .  S
O1074      C1075   1.253       .  A
C1075      O1076   1.258       .  A
O1076     Cr1092   2.004       .  S
O1077     Cr1092   2.004       .  S
O1077      C1078   1.271       .  A
C1078      O1079   1.262       .  A
C1078      C1189   1.465       .  S
O1079     Cr1093   1.971       .  S
O1080     Cr1093   2.018       .  S
O1080      C1081   1.269       .  A
C1081      C1153   1.456   1_565  S
O1082     Cr1091   1.987       .  S
O1082      C1090   1.252       .  A
O1083     Cr1091   1.959       .  S
O1083      C1084   1.260   1_455  A
C1084      O1085   1.274   1_655  A
C1084      C2350   1.460       .  S
O1085     Cr1092   2.024       .  S
O1086     Cr1092   1.998       .  S
O1086      C1087   1.261       .  A
C1087      O1088   1.260       .  A
C1087      C1173   1.482       .  S
O1088     Cr1093   1.996       .  S
O1089     Cr1093   2.010       .  S
O1089      C1090   1.265       .  A
C1090      C1134   1.471       .  S
Cr1091     O1094   1.764       .  S
Cr1092     O1094   1.773       .  S
Cr1093     O1094   1.773       .  S
O1095     Cr1113   2.013       .  S
O1095      C1103   1.264       .  A
O1096     Cr1113   1.963       .  S
O1096      C1097   1.261       .  A
C1097      O1098   1.273       .  A
C1097      C2346   1.484   1_455  S
O1098     Cr1114   2.038       .  S
O1099     Cr1114   1.993       .  S
O1099      C1100   1.265       .  A
C1100      O1101   1.264       .  A
C1100      C1177   1.475       .  S
O1101     Cr1115   1.996       .  S
O1102     Cr1115   1.994       .  S
O1102      C1103   1.258       .  A
C1103      C1138   1.491       .  S
O1104     Cr1113   1.953       .  S
O1104      C1112   1.256       .  A
O1105     Cr1113   2.006       .  S
O1105      C1106   1.263       .  A
C1106      O1107   1.263       .  A
C1106      C1118   1.485       .  S
O1107     Cr1114   2.007       .  S
O1108     Cr1114   2.026       .  S
O1108      C1109   1.271       .  A
C1109      O1110   1.262       .  A
C1109      C1214   1.486       .  S
O1110     Cr1115   1.983       .  S
O1111     Cr1115   2.026       .  S
O1111      C1112   1.269       .  A
C1112      C1150   1.461       .  S
Cr1113     O1116   1.764       .  S
Cr1114     O1116   1.772       .  S
Cr1115     O1116   1.775       .  S
C1117      C1118   1.346       .  D
C1117      H1119   1.088       .  S
C1118      H1120   1.086       .  S
C1121      C1122   1.338       .  D
C1121      H1123   1.087       .  S
C1122      C2321   1.479       .  S
C1122      H1124   1.087       .  S
C1125      C1126   1.341       .  D
C1125      H1127   1.087       .  S
C1126      C2308   1.462       .  S
C1126      H1128   1.088       .  S
C1129      C1130   1.342       .  D
C1129      H1131   1.087       .  S
C1130      H1132   1.086       .  S
C1133      C2358   1.349       .  D
C1133      H1135   1.087       .  S
C1134      C2357   1.333   1_455  D
C1134      H1136   1.087       .  S
C1137      C2362   1.344       .  D
C1137      H1139   1.087       .  S
C1138      C2361   1.346   1_455  D
C1138      H1140   1.086       .  S
C1141      H1143   1.086       .  S
C1142      H1144   1.089       .  S
C1145      C1146   1.344       .  D
C1145      H1147   1.087       .  S
C1146      H1148   1.088   1_556  S
C1149      C1150   1.340       .  D
C1149      H1151   1.086       .  S
C1150      H1152   1.088       .  S
C1153      H1155   1.087   1_545  S
C1154      H1156   1.088       .  S
C1157      C1158   1.348       .  D
C1158      H1160   1.085       .  S
C1161      C1162   1.345       .  D
C1161      H1163   1.086       .  S
C1165      C1166   1.344       .  D
C1165      H1167   1.087       .  S
C1166      H1168   1.087       .  S
C1169      C1170   1.351       .  D
C1169      H1171   1.086       .  S
C1170      H2396   1.087       .  S
H1172      C2394   1.087       .  S
C1173      C1174   1.343       .  D
C1173      H1175   1.088       .  S
C1174      H1176   1.086       .  S
C1177      C1178   1.344       .  D
C1177      H1179   1.087       .  S
C1178      H1180   1.087       .  S
C1181      C1182   1.343       .  D
C1181      H1183   1.087       .  S
C1182      H1184   1.087       .  S
C1185      C1186   1.346       .  D
C1186      H1188   1.086       .  S
C1189      C1190   1.337       .  D
C1189      H1191   1.087       .  S
C1190      H1192   1.087       .  S
C1193      C1194   1.350       .  D
C1193      H1195   1.086       .  S
C1194      H1196   1.087       .  S
C1197      C1198   1.340       .  D
C1197      H1199   1.088       .  S
C1198      H1200   1.086       .  S
C1201      C1202   1.347       .  D
C1201      H1203   1.086       .  S
C1202      H1204   1.087       .  S
C1205      C1206   1.349       .  D
C1205      H1207   1.088       .  S
C1206      H1208   1.086       .  S
C1209      C1210   1.353       .  D
C1209      H1211   1.086       .  S
C1210      H1212   1.087       .  S
C1213      C1214   1.348       .  D
C1213      H1215   1.086       .  S
C1214      H1216   1.087       .  S
C1217      C1218   1.341       .  D
C1217      H1219   1.087       .  S
C1218      H1220   1.087       .  S
C1221      C1222   1.339       .  D
C1221      H1223   1.087       .  S
C1222      H1224   1.087       .  S
O1225     Cr1243   1.983       .  S
O1225      C1233   1.251       .  A
O1226     Cr1243   1.968       .  S
O1226      C1227   1.266       .  A
C1227      O1228   1.275       .  A
C1227      C1523   1.480       .  S
O1228     Cr1244   2.036       .  S
O1229     Cr1244   1.988       .  S
O1229      C1230   1.265       .  A
C1230      O1231   1.272       .  A
C1230      C1508   1.491       .  S
O1231     Cr1245   2.024       .  S
O1232     Cr1245   2.018       .  S
O1232      C1233   1.258       .  A
C1233      C1515   1.492       .  S
O1234     Cr1243   1.954       .  S
O1234      C1242   1.262       .  A
O1235     Cr1243   1.975       .  S
O1235      C1236   1.251       .  A
C1236      O1237   1.257       .  A
C1236      C1527   1.463       .  S
O1237     Cr1244   2.002       .  S
O1238     Cr1244   2.001       .  S
O1238      C1239   1.264       .  A
C1239      O1240   1.262       .  A
C1239      C1511   1.482       .  S
O1240     Cr1245   1.987       .  S
O1241     Cr1245   2.060       .  S
O1241      C1242   1.283       .  A
C1242      C1519   1.495       .  S
Cr1243     O1246   1.779       .  S
Cr1244     O1246   1.781       .  S
Cr1245     O1246   1.776       .  S
O1247     Cr1265   1.961       .  S
O1247      C1255   1.261       .  A
O1248     Cr1265   1.982       .  S
O1248      C1249   1.258       .  A
C1249      O1250   1.261       .  A
C1249      C1503   1.471       .  S
O1250     Cr1266   2.009       .  S
O1251     Cr1266   2.022       .  S
O1251      C1864   1.273       .  A
C1252      O1863   1.274   1_545  A
C1252      O1253   1.264       .  A
C1252      C1487   1.484       .  S
O1253     Cr1267   1.978       .  S
O1254     Cr1267   2.035   1_565  S
O1254      C1867   1.270       .  A
C1255      O1866   1.271       .  A
C1255      C1496   1.479       .  S
O1256     Cr1265   1.991       .  S
O1256      C1264   1.258       .  A
O1257     Cr1265   1.963       .  S
O1257      C1258   1.259       .  A
C1258      O1259   1.274       .  A
C1258      C1524   1.473       .  S
O1259     Cr1266   2.037       .  S
O1260     Cr1266   2.006       .  S
O1260      C1873   1.264       .  A
C1261      O1872   1.263   1_545  A
C1261      O1262   1.261       .  A
C1261      C1491   1.466       .  S
O1262     Cr1267   1.989       .  S
O1263     Cr1267   2.000   1_565  S
O1263      C1876   1.258       .  A
C1264      O1875   1.259       .  A
C1264      C1499   1.473       .  S
Cr1265     O1268   1.757       .  S
Cr1266     O1268   1.776       .  S
Cr1267     O1880   1.769   1_545  S
O1268     Cr1879   1.768       .  S
O1269     Cr1287   1.990       .  S
O1269      C1277   1.259       .  A
O1270     Cr1287   1.987       .  S
O1270      C1271   1.266       .  A
C1271      O1272   1.263       .  A
C1271      C1528   1.475       .  S
O1272     Cr1288   1.998       .  S
O1273     Cr1288   2.005       .  S
C1274      O1275   1.263       .  A
C1274      C1476   1.488       .  S
O1275     Cr1289   1.980       .  S
O1276     Cr1289   2.046       .  S
C1277      C1484   1.478       .  S
O1278     Cr1287   1.986       .  S
O1278      C1286   1.264       .  A
O1279     Cr1287   1.979       .  S
O1279      C1280   1.262       .  A
C1280      O1281   1.264       .  A
C1280      C1504   1.486       .  S
O1281     Cr1288   2.007       .  S
O1282     Cr1288   1.998       .  S
C1283      O1284   1.266       .  A
C1283      C1472   1.477       .  S
O1284     Cr1289   2.007       .  S
O1285     Cr1289   2.003       .  S
C1286      C1480   1.492       .  S
Cr1287     O1290   1.768       .  S
Cr1288     O1290   1.779       .  S
O1291     Cr1309   1.992       .  S
O1291      C1299   1.258       .  A
O1292     Cr1309   1.970       .  S
O1292      C1599   1.258   1_554  A
C1293      O1598   1.259       .  A
C1293      O1294   1.266       .  A
C1293      C1468   1.470       .  S
O1294     Cr1310   2.010       .  S
O1295     Cr1310   1.993       .  S
O1295      C1296   1.263       .  A
C1296      O1297   1.258       .  A
C1296      C1460   1.459       .  S
O1297     Cr1617   1.978       .  S
O1298     Cr1311   2.010       .  S
O1298      C1299   1.262       .  A
C1299      C1488   1.487       .  S
O1300     Cr1309   1.960       .  S
O1300      C1308   1.256       .  A
O1301     Cr1309   1.977       .  S
O1301      C1608   1.260   1_554  A
C1302      O1607   1.259       .  A
C1302      O1303   1.259       .  A
C1302      C1463   1.457       .  S
O1303     Cr1310   1.988       .  S
O1304     Cr1310   1.990       .  S
O1304      C1305   1.263       .  A
C1305      O1306   1.269       .  A
C1305      C1455   1.475       .  S
O1306     Cr1617   1.999       .  S
O1307     Cr1311   2.038       .  S
O1307      C1308   1.273       .  A
C1308      C1512   1.483       .  S
Cr1309     O1312   1.773       .  S
Cr1310     O1618   1.776       .  S
Cr1311     O1603   2.001   1_554  S
Cr1311     O1612   2.005   1_554  S
Cr1311     O1312   1.766       .  S
O1312     Cr1616   1.781   1_554  S
O1313     Cr1331   2.001       .  S
O1313      C1321   1.258       .  A
O1314     Cr1331   1.959       .  S
O1314      C1621   1.256   1_554  A
C1315      O1620   1.254       .  A
C1315      O1316   1.266       .  A
C1315      C1452   1.463       .  S
O1316     Cr1332   2.010       .  S
O1317     Cr1332   1.975       .  S
O1317      C1318   1.258       .  A
C1318      O1319   1.270       .  A
C1318      C1443   1.469       .  S
O1319     Cr1639   2.013       .  S
O1320     Cr1333   2.010       .  S
O1320      C1321   1.260       .  A
C1321      C1475   1.491       .  S
O1322     Cr1331   1.945       .  S
O1322      C1330   1.257       .  A
O1323     Cr1331   1.992       .  S
O1323      C1630   1.261   1_554  A
C1324      O1629   1.266       .  A
C1324      O1325   1.260       .  A
C1324      C1467   1.469       .  S
O1325     Cr1332   1.984       .  S
O1326     Cr1332   1.997       .  S
O1326      C1327   1.264       .  A
C1327      O1328   1.266       .  A
C1327      C1448   1.471       .  S
O1328     Cr1639   1.991       .  S
O1329     Cr1333   2.040       .  S
O1329      C1330   1.274       .  A
C1330      C1492   1.482       .  S
Cr1331     O1334   1.767       .  S
Cr1332     O1640   1.771       .  S
Cr1333     O1625   2.001   1_554  S
Cr1333     O1634   1.985   1_554  S
Cr1333     O1334   1.771       .  S
O1334     Cr1638   1.776   1_554  S
O1335     Cr1353   1.975       .  S
O1335      C1343   1.262       .  A
O1336     Cr1353   1.974   1_556  S
O1336      C1643   1.258       .  A
C1337      O1642   1.261       .  A
C1337      O1338   1.260       .  A
C1337      C1464   1.471       .  S
O1338     Cr1354   2.000       .  S
O1339     Cr1354   2.006       .  S
O1339      C1340   1.269       .  A
C1340      O1341   1.258       .  A
C1340      C1435   1.464       .  S
O1341     Cr1661   1.964       .  S
O1342     Cr1355   2.059       .  S
O1342      C1343   1.279       .  A
C1343      C1507   1.491       .  S
O1344     Cr1353   2.000       .  S
O1344      C1352   1.258       .  A
O1345     Cr1353   1.967       .  S
O1345      C1652   1.265   1_554  A
C1346      O1651   1.261       .  A
C1346      O1347   1.269       .  A
C1346      C1451   1.469       .  S
O1347     Cr1354   2.021       .  S
O1348     Cr1354   1.981       .  S
O1348      C1349   1.261       .  A
C1349      O1350   1.267       .  A
C1349      C1439   1.475       .  S
O1350     Cr1661   2.009       .  S
O1351     Cr1355   1.991       .  S
O1351      C1352   1.256       .  A
C1352      C1471   1.479       .  S
Cr1353     O1662   1.763   1_554  S
Cr1354     O1356   1.771       .  S
Cr1355     O1647   1.969   1_554  S
Cr1355     O1656   2.032   1_554  S
Cr1355     O1662   1.771   1_554  S
O1356     Cr1659   1.753       .  S
O1356     Cr1661   1.767       .  S
O1357     Cr1375   1.987       .  S
O1357      C1365   1.255       .  A
O1358     Cr1375   1.961       .  S
O1358      C1359   1.261       .  A
C1359      O1360   1.270       .  A
C1359      C1431   1.468       .  S
O1360     Cr1376   2.017       .  S
O1361     Cr1376   1.993       .  S
O1361      C1362   1.262       .  A
C1362      O1363   1.269       .  A
C1362      C1516   1.486       .  S
O1363     Cr1377   2.014       .  S
O1364     Cr1377   1.994       .  S
O1364      C1365   1.255       .  A
C1365      C1436   1.469       .  S
O1366     Cr1375   1.953       .  S
O1366      C1374   1.260       .  A
O1367     Cr1375   1.980       .  S
O1367      C1368   1.256       .  A
C1368      O1369   1.261       .  A
C1368      C2039   1.464       .  S
O1369     Cr1376   2.004       .  S
O1370     Cr1376   2.006       .  S
O1370      C1371   1.268       .  A
C1371      O1372   1.261       .  A
C1371      C1500   1.470       .  S
O1372     Cr1377   1.972       .  S
O1373     Cr1377   2.053       .  S
O1373      C1374   1.276       .  A
C1374      C1447   1.484       .  S
Cr1375     O1378   1.761       .  S
Cr1376     O1378   1.773       .  S
Cr1377     O1378   1.766       .  S
O1379     Cr1397   1.960       .  S
O1379      C1387   1.260       .  A
O1380     Cr1397   1.988       .  S
O1380      C1381   1.257       .  A
C1381      O1382   1.260       .  A
C1381      C2035   1.467       .  S
O1382     Cr1398   2.003       .  S
O1383     Cr1398   1.982       .  S
O1383      C1384   1.262       .  A
C1384      O1385   1.269       .  A
C1384      C1495   1.472       .  S
O1385     Cr1399   2.009       .  S
O1386     Cr1399   2.043       .  S
O1386      C1387   1.275       .  A
C1387      C1459   1.476       .  S
O1388     Cr1397   1.986       .  S
O1388      C1396   1.251       .  A
O1389     Cr1397   1.967       .  S
O1389      C1390   1.259       .  A
C1390      O1391   1.269       .  A
O1391     Cr1398   2.017       .  S
O1392     Cr1398   2.004       .  S
O1392      C1393   1.267       .  A
C1393      O1394   1.267       .  A
C1393      C1479   1.491       .  S
O1394     Cr1399   2.011       .  S
O1395     Cr1399   2.031       .  S
O1395      C1396   1.268       .  A
C1396      C1440   1.483       .  S
Cr1397     O1400   1.768       .  S
Cr1398     O1400   1.772       .  S
Cr1399     O1400   1.768       .  S
O1401     Cr1419   1.965       .  S
O1401      C1409   1.260       .  A
O1402     Cr1419   1.990       .  S
O1402      C1403   1.259       .  A
C1403      O1404   1.259       .  A
O1404     Cr1420   2.000       .  S
O1405     Cr1420   2.024       .  S
O1405      C1406   1.274       .  A
C1406      O1407   1.259       .  A
C1406      C1483   1.469       .  S
O1407     Cr1421   1.961       .  S
O1408     Cr1421   2.010       .  S
O1408      C1409   1.264       .  A
C1409      C1444   1.463       .  S
O1410     Cr1419   2.000       .  S
O1410      C1418   1.258       .  A
O1411     Cr1419   1.964       .  S
O1411      C1412   1.261       .  A
C1412      O1413   1.274       .  A
C1412      C1424   1.477       .  S
O1413     Cr1420   2.039       .  S
O1414     Cr1420   2.018       .  S
O1414      C1415   1.265       .  A
C1415      O1416   1.259       .  A
C1415      C1520   1.487       .  S
O1416     Cr1421   1.988       .  S
O1417     Cr1421   2.001       .  S
O1417      C1418   1.264       .  A
C1418      C1456   1.476       .  S
Cr1419     O1422   1.769       .  S
Cr1420     O1422   1.788       .  S
Cr1421     O1422   1.778       .  S
C1423      C1993   1.481   1_545  S
C1423      C1424   1.347       .  D
C1423      H1425   1.086       .  S
C1424      H1426   1.089       .  S
C1427      C1980   1.472       .  S
C1427      C1428   1.342       .  D
C1427      H1429   1.086       .  S
C1428      H1430   1.089       .  S
C1431      C1432   1.343       .  D
C1431      H1433   1.087       .  S
C1432      H1434   1.087       .  S
C1435      C1436   1.340       .  D
C1435      H1437   1.087       .  S
C1436      H1438   1.087       .  S
C1439      H1441   1.087   1_655  S
C1440      H1442   1.087       .  S
C1443      H1445   1.086   1_655  S
C1444      H1446   1.086       .  S
C1447      C2060   1.346       .  D
C1447      H1449   1.086       .  S
C1448      C2059   1.338   1_545  D
C1448      H1450   1.088       .  S
C1451      C1452   1.340       .  D
C1451      H1453   1.087       .  S
C1452      H1454   1.088       .  S
C1455      C1456   1.336       .  D
C1455      H1457   1.087       .  S
C1456      H1458   1.087       .  S
C1459      C2072   1.344       .  D
C1459      H1461   1.089       .  S
C1460      C2071   1.336       .  D
C1460      H1462   1.088       .  S
C1463      C1464   1.341       .  D
C1463      H1771   1.089       .  S
C1464      H1466   1.086       .  S
H1465      C1769   1.089   1_554  S
C1467      C1468   1.345       .  D
C1467      H1469   1.086       .  S
C1468      H1776   1.088       .  S
H1470      C1774   1.088   1_554  S
C1471      C1472   1.348       .  D
C1471      H1473   1.086       .  S
C1472      H1474   1.087       .  S
C1475      C1476   1.349       .  D
C1475      H1477   1.086       .  S
C1479      C1480   1.347       .  D
C1479      H1481   1.087       .  S
C1480      H1482   1.086       .  S
C1483      C1484   1.342       .  D
C1483      H1485   1.087       .  S
C1484      H1486   1.087       .  S
C1487      C1488   1.348       .  D
C1487      H1489   1.087       .  S
C1488      H1490   1.086   1_545  S
C1491      C1492   1.347       .  D
C1491      H2105   1.087       .  S
C1492      H1494   1.086       .  S
H1493      C2103   1.087       .  S
C1495      C1496   1.341       .  D
C1495      H1497   1.089       .  S
C1496      H1498   1.086       .  S
C1499      C1500   1.344       .  D
C1499      H1501   1.086       .  S
C1500      H1502   1.088       .  S
C1503      C1504   1.346       .  D
C1503      H1505   1.089       .  S
C1504      H1506   1.086       .  S
C1507      C1508   1.349       .  D
C1507      H1509   1.088       .  S
C1508      H1510   1.090       .  S
C1511      C1512   1.349       .  D
C1511      H1513   1.087       .  S
C1512      H1514   1.086       .  S
C1515      C1516   1.354       .  D
C1515      H1517   1.086       .  S
C1516      H1518   1.087       .  S
C1519      C1520   1.351       .  D
C1519      H1521   1.085       .  S
C1520      H1522   1.088       .  S
C1523      C1524   1.343       .  D
C1523      H1525   1.086       .  S
C1524      H1526   1.088       .  S
C1527      C1528   1.336       .  D
C1527      H1529   1.087       .  S
C1528      H1530   1.087       .  S
O1531     Cr1549   1.952       .  S
O1531      C1539   1.256       .  A
O1532     Cr1549   2.002       .  S
O1532      C1533   1.266       .  A
C1533      O1534   1.262       .  A
C1533      C1829   1.480       .  S
O1534     Cr1550   1.993       .  S
O1535     Cr1550   2.024       .  S
O1535      C1536   1.274       .  A
C1536      O1537   1.261       .  A
C1536      C1814   1.481       .  S
O1537     Cr1551   1.982       .  S
O1538     Cr1551   2.011       .  S
O1538      C1539   1.264       .  A
C1539      C1821   1.469       .  S
O1540     Cr1549   2.014       .  S
O1540      C1548   1.265       .  A
O1541     Cr1549   1.962       .  S
O1541      C1542   1.256       .  A
C1542      O1543   1.271       .  A
C1542      C1833   1.476       .  S
O1543     Cr1550   2.037       .  S
O1544     Cr1550   1.996       .  S
O1544      C1545   1.264       .  A
C1545      O1546   1.261       .  A
C1545      C1817   1.467       .  S
O1546     Cr1551   1.989       .  S
O1547     Cr1551   1.990       .  S
O1547      C1548   1.260       .  A
C1548      C1825   1.480       .  S
Cr1549     O1552   1.761       .  S
Cr1550     O1552   1.775       .  S
Cr1551     O1552   1.771       .  S
O1553     Cr1571   1.956       .  S
O1553      C1561   1.258       .  A
O1554     Cr1571   1.989       .  S
O1554      C1555   1.258       .  A
C1555      O1556   1.262       .  A
C1555      C1809   1.474       .  S
O1556     Cr1572   2.008       .  S
O1557     Cr1572   2.039       .  S
O1557      C2170   1.275       .  A
C1558      O2169   1.271   1_545  A
C1558      O1559   1.265       .  A
C1558      C1793   1.485       .  S
O1559     Cr1573   1.986       .  S
O1560     Cr1573   2.033   1_565  S
O1560      C2173   1.269       .  A
C1561      O2172   1.271       .  A
C1561      C1802   1.477       .  S
O1562     Cr1571   2.006       .  S
O1562      C1570   1.260       .  A
O1563     Cr1571   1.959       .  S
O1563      C1564   1.258       .  A
C1564      O1565   1.277       .  A
C1564      C1830   1.478       .  S
O1565     Cr1572   2.051       .  S
O1566     Cr1572   2.012       .  S
O1566      C2179   1.266       .  A
C1567      O2178   1.264   1_545  A
C1567      O1568   1.265       .  A
C1567      C1797   1.479       .  S
O1568     Cr1573   2.000       .  S
O1569     Cr1573   2.002   1_565  S
O1569      C2182   1.261       .  A
C1570      O2181   1.260       .  A
C1570      C1805   1.480       .  S
Cr1571     O1574   1.766       .  S
Cr1572     O1574   1.781       .  S
Cr1573     O2186   1.771   1_545  S
O1574     Cr2185   1.769       .  S
O1575     Cr1593   1.957       .  S
O1575      C1583   1.258       .  A
O1576     Cr1593   1.996       .  S
O1576      C1577   1.264       .  A
C1577      O1578   1.262       .  A
C1577      C1834   1.476       .  S
O1578     Cr1594   1.993       .  S
O1579     Cr1594   2.031       .  S
C1580      O1581   1.260       .  A
C1580      C1782   1.488       .  S
O1581     Cr1595   1.993       .  S
O1582     Cr1595   1.989   1_455  S
C1583      C1790   1.483       .  S
O1584     Cr1593   2.009       .  S
O1584      C1592   1.263       .  A
O1585     Cr1593   1.970       .  S
O1585      C1586   1.261       .  A
C1586      O1587   1.271       .  A
C1586      C1810   1.489       .  S
O1587     Cr1594   2.036       .  S
O1588     Cr1594   1.986       .  S
C1589      O1590   1.259       .  A
C1589      C1778   1.469       .  S
O1590     Cr1595   1.965       .  S
O1591     Cr1595   2.026   1_455  S
C1592      C1786   1.485       .  S
Cr1593     O1596   1.766       .  S
Cr1594     O1596   1.779       .  S
O1597     Cr1615   1.993       .  S
O1597      C1605   1.258       .  A
O1598     Cr1615   1.974       .  S
C1599      O1600   1.268       .  A
C1599      C1774   1.473       .  S
O1600     Cr1616   2.021       .  S
O1601     Cr1616   2.011       .  S
O1601      C1602   1.270       .  A
C1602      O1603   1.268       .  A
C1602      C1766   1.484       .  S
O1604     Cr1617   2.017       .  S
O1604      C1605   1.265       .  A
C1605      C1794   1.488       .  S
O1606     Cr1615   1.957       .  S
O1606      C1614   1.259       .  A
O1607     Cr1615   1.977       .  S
C1608      O1609   1.261       .  A
C1608      C1769   1.461       .  S
O1609     Cr1616   1.999       .  S
O1610     Cr1616   1.986       .  S
O1610      C1611   1.261       .  A
C1611      O1612   1.266       .  A
C1611      C1761   1.471       .  S
O1613     Cr1617   2.018       .  S
O1613      C1614   1.266       .  A
C1614      C1818   1.476       .  S
Cr1615     O1618   1.765       .  S
Cr1617     O1618   1.770       .  S
O1619     Cr1637   1.996       .  S
O1619      C1627   1.261       .  A
O1620     Cr1637   1.963       .  S
C1621      O1622   1.273       .  A
C1621      C1758   1.466       .  S
O1622     Cr1638   2.031       .  S
O1623     Cr1638   1.988       .  S
O1623      C1624   1.262       .  A
C1624      O1625   1.265       .  A
C1624      C1749   1.477       .  S
O1626     Cr1639   2.004       .  S
O1626      C1627   1.259       .  A
C1627      C1781   1.493       .  S
O1628     Cr1637   1.952       .  S
O1628      C1636   1.257       .  A
O1629     Cr1637   1.996       .  S
C1630      O1631   1.259       .  A
C1630      C1773   1.472       .  S
O1631     Cr1638   1.991       .  S
O1632     Cr1638   2.017       .  S
O1632      C1633   1.270       .  A
C1633      O1634   1.264       .  A
C1633      C1754   1.478       .  S
O1635     Cr1639   2.049       .  S
O1635      C1636   1.276       .  A
C1636      C1798   1.489       .  S
Cr1637     O1640   1.763       .  S
Cr1639     O1640   1.769       .  S
O1641     Cr1659   1.955       .  S
O1641      C1649   1.257       .  A
O1642     Cr1659   1.979       .  S
C1643      O1644   1.256       .  A
C1643      C1770   1.473       .  S
O1644     Cr1660   1.993       .  S
O1645     Cr1660   2.010       .  S
O1645      C1646   1.268       .  A
C1646      O1647   1.259       .  A
C1646      C1741   1.472       .  S
O1648     Cr1661   2.044       .  S
O1648      C1649   1.275       .  A
C1649      C1813   1.475       .  S
O1650     Cr1659   1.996       .  S
O1650      C1658   1.258       .  A
O1651     Cr1659   1.962       .  S
C1652      O1653   1.271       .  A
C1652      C1757   1.474       .  S
O1653     Cr1660   2.024       .  S
O1654     Cr1660   1.978       .  S
O1654      C1655   1.258       .  A
C1655      O1656   1.272       .  A
C1655      C1745   1.495       .  S
O1657     Cr1661   1.988       .  S
O1657      C1658   1.254       .  A
C1658      C1777   1.473       .  S
Cr1660     O1662   1.784       .  S
O1663     Cr1681   1.988       .  S
O1663      C1671   1.258       .  A
O1664     Cr1681   1.958       .  S
O1664      C1665   1.258       .  A
C1665      O1666   1.268       .  A
C1665      C1737   1.471       .  S
O1666     Cr1682   2.020       .  S
O1667     Cr1682   1.987       .  S
O1667      C1668   1.261       .  A
C1668      O1669   1.259       .  A
C1668      C1822   1.456       .  S
O1669     Cr1683   1.984       .  S
O1670     Cr1683   2.006       .  S
O1670      C1671   1.260       .  A
C1671      C1742   1.479       .  S
O1672     Cr1681   1.944       .  S
O1672      C1680   1.259       .  A
O1673     Cr1681   1.993       .  S
O1673      C1674   1.261       .  A
C1674      O1675   1.260       .  A
C1674      C2345   1.469       .  S
O1675     Cr1682   1.995       .  S
O1676     Cr1682   2.005       .  S
O1676      C1677   1.269       .  A
C1677      O1678   1.268       .  A
C1677      C1806   1.481       .  S
O1678     Cr1683   1.991       .  S
O1679     Cr1683   2.033       .  S
O1679      C1680   1.269       .  A
C1680      C1753   1.470       .  S
Cr1681     O1684   1.758       .  S
Cr1682     O1684   1.771       .  S
Cr1683     O1684   1.772       .  S
O1685     Cr1703   1.947       .  S
O1685      C1693   1.257       .  A
O1686     Cr1703   1.990       .  S
O1686      C1687   1.258       .  A
C1687      O1688   1.262       .  A
C1687      C2341   1.467       .  S
O1688     Cr1704   2.007       .  S
O1689     Cr1704   1.988       .  S
O1689      C1690   1.264       .  A
C1690      O1691   1.268       .  A
C1690      C1801   1.472       .  S
O1691     Cr1705   2.001       .  S
O1692     Cr1705   2.043       .  S
O1692      C1693   1.275       .  A
C1693      C1765   1.467       .  S
O1694     Cr1703   1.980       .  S
O1694      C1702   1.253       .  A
O1695     Cr1703   1.964       .  S
O1695      C1696   1.256       .  A
C1696      O1697   1.271       .  A
O1697     Cr1704   2.020       .  S
O1698     Cr1704   1.994       .  S
O1698      C1699   1.266       .  A
C1699      O1700   1.266       .  A
C1699      C1785   1.482       .  S
O1700     Cr1705   2.007       .  S
O1701     Cr1705   2.017       .  S
O1701      C1702   1.261       .  A
C1702      C1746   1.484       .  S
Cr1703     O1706   1.763       .  S
Cr1704     O1706   1.765       .  S
Cr1705     O1706   1.771       .  S
O1707     Cr1725   1.987       .  S
O1707      C1715   1.260       .  A
O1708     Cr1725   1.988       .  S
O1708      C1709   1.265       .  A
C1709      O1710   1.267       .  A
O1710     Cr1726   2.014       .  S
O1711     Cr1726   1.998       .  S
O1711      C1712   1.265       .  A
C1712      O1713   1.263       .  A
C1712      C1789   1.469       .  S
O1713     Cr1727   1.997       .  S
O1714     Cr1727   1.993       .  S
O1714      C1715   1.258       .  A
C1715      C1750   1.477       .  S
O1716     Cr1725   1.963       .  S
O1716      C1724   1.261       .  A
O1717     Cr1725   1.986       .  S
O1717      C1718   1.258       .  A
C1718      O1719   1.265       .  A
C1718      C1730   1.470       .  S
O1719     Cr1726   2.009       .  S
O1720     Cr1726   2.008       .  S
O1720      C1721   1.267       .  A
C1721      O1722   1.263       .  A
C1721      C1826   1.481       .  S
O1722     Cr1727   1.985       .  S
O1723     Cr1727   2.031       .  S
O1723      C1724   1.269       .  A
C1724      C1762   1.477       .  S
Cr1725     O1728   1.765       .  S
Cr1726     O1728   1.774       .  S
Cr1727     O1728   1.781       .  S
C1729      C2299   1.481   1_545  S
C1729      C1730   1.343       .  D
C1729      H1731   1.086       .  S
C1730      H1732   1.088       .  S
C1733      C2286   1.459       .  S
C1733      C1734   1.339       .  D
C1733      H1735   1.087       .  S
C1734      H1736   1.087       .  S
C1737      C1738   1.344       .  D
C1737      H1739   1.087       .  S
C1738      H1740   1.087       .  S
C1741      C1742   1.346       .  D
C1741      H1743   1.087       .  S
C1742      H1744   1.086       .  S
C1745      H1747   1.087       .  S
C1746      H1748   1.086       .  S
C1749      H1751   1.087   1_655  S
C1750      H1752   1.086       .  S
C1753      C2366   1.337       .  D
C1753      H1755   1.086       .  S
C1754      C2365   1.349   1_545  D
C1754      H1756   1.087   1_545  S
C1757      C1758   1.341       .  D
C1757      H1759   1.087       .  S
C1758      H1760   1.088   1_556  S
C1761      C1762   1.340       .  D
C1761      H1763   1.089       .  S
C1762      H1764   1.086       .  S
C1765      C2378   1.340       .  D
C1765      H1767   1.089       .  S
C1766      C2377   1.349   1_545  D
C1766      H1768   1.088       .  S
C1769      C1770   1.340       .  D
C1770      H1772   1.085       .  S
C1773      C1774   1.344       .  D
C1773      H1775   1.086       .  S
C1777      C1778   1.340       .  D
C1777      H1779   1.087       .  S
C1778      H1780   1.087       .  S
C1781      C1782   1.348       .  D
C1781      H1783   1.086       .  S
C1785      C1786   1.346       .  D
C1785      H1787   1.087       .  S
C1786      H1788   1.086       .  S
C1789      C1790   1.345       .  D
C1789      H1791   1.087       .  S
C1790      H1792   1.086       .  S
C1793      C1794   1.351       .  D
C1793      H1795   1.087       .  S
C1794      H1796   1.086       .  S
C1797      C1798   1.351       .  D
C1797      H2411   1.088       .  S
C1798      H1800   1.086       .  S
H1799      C2409   1.088       .  S
C1801      C1802   1.341       .  D
C1801      H1803   1.089       .  S
C1802      H1804   1.086       .  S
C1805      C1806   1.349       .  D
C1805      H1807   1.087       .  S
C1806      H1808   1.087       .  S
C1809      C1810   1.346       .  D
C1809      H1811   1.087       .  S
C1810      H1812   1.086       .  S
C1813      C1814   1.342       .  D
C1813      H1815   1.088       .  S
C1814      H1816   1.086       .  S
C1817      C1818   1.340       .  D
C1817      H1819   1.088       .  S
C1818      H1820   1.086       .  S
C1821      C1822   1.337       .  D
C1821      H1823   1.086       .  S
C1822      H1824   1.088       .  S
C1825      C1826   1.346       .  D
C1825      H1827   1.087       .  S
C1826      H1828   1.087       .  S
C1829      C1830   1.343       .  D
C1829      H1831   1.086       .  S
C1830      H1832   1.089       .  S
C1833      C1834   1.343       .  D
C1833      H1835   1.089       .  S
C1834      H1836   1.086       .  S
O1837     Cr1855   1.985       .  S
O1837      C1845   1.254       .  A
O1838     Cr1855   1.968       .  S
O1838      C1839   1.263       .  A
C1839      O1840   1.271       .  A
C1839      C2135   1.480       .  S
O1840     Cr1856   2.030       .  S
O1841     Cr1856   1.989       .  S
O1841      C1842   1.265       .  A
C1842      O1843   1.269       .  A
C1842      C2120   1.483       .  S
O1843     Cr1857   2.013       .  S
O1844     Cr1857   2.003       .  S
O1844      C1845   1.255       .  A
C1845      C2127   1.487       .  S
O1846     Cr1855   1.950       .  S
O1846      C1854   1.259       .  A
O1847     Cr1855   1.983       .  S
O1847      C1848   1.256       .  A
C1848      O1849   1.259       .  A
C1848      C2139   1.466       .  S
O1849     Cr1856   1.999       .  S
O1850     Cr1856   2.004       .  S
O1850      C1851   1.264       .  A
C1851      O1852   1.260       .  A
C1851      C2123   1.479       .  S
O1852     Cr1857   1.982       .  S
O1853     Cr1857   2.045       .  S
O1853      C1854   1.278       .  A
C1854      C2131   1.480       .  S
Cr1855     O1858   1.777       .  S
Cr1856     O1858   1.784       .  S
Cr1857     O1858   1.777       .  S
O1859     Cr1877   1.946       .  S
O1859      C1867   1.259       .  A
O1860     Cr1877   1.987       .  S
O1860      C1861   1.261       .  A
C1861      O1862   1.263       .  A
C1861      C2115   1.472       .  S
O1862     Cr1878   2.006       .  S
O1863     Cr1878   2.032       .  S
C1864      O1865   1.261       .  A
C1864      C2099   1.474       .  S
O1865     Cr1879   1.969       .  S
O1866     Cr1879   2.039       .  S
C1867      C2108   1.471       .  S
O1868     Cr1877   1.993       .  S
O1868      C1876   1.258       .  A
O1869     Cr1877   1.961       .  S
O1869      C1870   1.256       .  A
C1870      O1871   1.273       .  A
C1870      C2136   1.472       .  S
O1871     Cr1878   2.039       .  S
O1872     Cr1878   2.000       .  S
C1873      O1874   1.263       .  A
C1873      C2103   1.477       .  S
O1874     Cr1879   1.997       .  S
O1875     Cr1879   1.998       .  S
C1876      C2111   1.476       .  S
Cr1877     O1880   1.756       .  S
Cr1878     O1880   1.775       .  S
O1881     Cr1899   1.983       .  S
O1881      C1889   1.257       .  A
O1882     Cr1899   1.984       .  S
O1882      C1883   1.266       .  A
C1883      O1884   1.266       .  A
C1883      C2140   1.478       .  S
O1884     Cr1900   2.007       .  S
O1885     Cr1900   2.009       .  S
C1886      O1887   1.263       .  A
C1886      C2088   1.482       .  S
O1887     Cr1901   1.978       .  S
O1888     Cr1901   2.029   1_455  S
C1889      C2096   1.481       .  S
O1890     Cr1899   1.979       .  S
O1890      C1898   1.264       .  A
O1891     Cr1899   1.976       .  S
O1891      C1892   1.260       .  A
C1892      O1893   1.264       .  A
C1892      C2116   1.488       .  S
O1893     Cr1900   2.013       .  S
O1894     Cr1900   2.005       .  S
C1895      O1896   1.263       .  A
C1895      C2084   1.485       .  S
O1896     Cr1901   2.002       .  S
O1897     Cr1901   2.000   1_455  S
C1898      C2092   1.484       .  S
Cr1899     O1902   1.766       .  S
Cr1900     O1902   1.777       .  S
O1903     Cr1921   1.988       .  S
O1903      C1911   1.258       .  A
O1904     Cr1921   1.973       .  S
O1904      C2211   1.258   1_554  A
C1905      O2210   1.255       .  A
C1905      O1906   1.266       .  A
C1905      C2080   1.462       .  S
O1906     Cr1922   2.013       .  S
O1907     Cr1922   1.990       .  S
O1907      C1908   1.262       .  A
C1908      O1909   1.269       .  A
C1908      C2072   1.479       .  S
O1909     Cr2229   2.011       .  S
O1910     Cr1923   1.998       .  S
O1910      C1911   1.258       .  A
C1911      C2100   1.478       .  S
O1912     Cr1921   1.950       .  S
O1912      C1920   1.255       .  A
O1913     Cr1921   1.980       .  S
O1913      C2220   1.262   1_554  A
C1914      O2219   1.263       .  A
C1914      O1915   1.264       .  A
C1914      C2075   1.467       .  S
O1915     Cr1922   1.999       .  S
O1916     Cr1922   2.004       .  S
O1916      C1917   1.265       .  A
C1917      O1918   1.267       .  A
C1917      C2067   1.484       .  S
O1918     Cr2229   2.006       .  S
O1919     Cr1923   2.039       .  S
O1919      C1920   1.273       .  A
C1920      C2124   1.478       .  S
Cr1921     O1924   1.767       .  S
Cr1922     O2230   1.777       .  S
Cr1923     O2215   2.007   1_554  S
Cr1923     O2224   1.999   1_554  S
Cr1923     O1924   1.767       .  S
O1924     Cr2228   1.774   1_554  S
O1925     Cr1943   1.992       .  S
O1925      C1933   1.259       .  A
O1926     Cr1943   1.970       .  S
O1926      C2233   1.257   1_554  A
C1927      O2232   1.255       .  A
C1927      O1928   1.270       .  A
C1927      C2064   1.474       .  S
O1928     Cr1944   2.025       .  S
O1929     Cr1944   1.992       .  S
O1929      C1930   1.263       .  A
C1930      O1931   1.265       .  A
C1930      C2055   1.475       .  S
O1931     Cr2251   2.001       .  S
O1932     Cr1945   2.010       .  S
O1932      C1933   1.262       .  A
C1933      C2087   1.486       .  S
O1934     Cr1943   1.960       .  S
O1934      C1942   1.257       .  A
O1935     Cr1943   1.985       .  S
O1935      C2242   1.262   1_554  A
C1936      O2241   1.263       .  A
C1936      O1937   1.258       .  A
C1936      C2079   1.463       .  S
O1937     Cr1944   1.980       .  S
O1938     Cr1944   2.004       .  S
O1938      C1939   1.268       .  A
C1939      O1940   1.268       .  A
C1939      C2060   1.475       .  S
O1940     Cr2251   2.002       .  S
O1941     Cr1945   2.039       .  S
O1941      C1942   1.272       .  A
C1942      C2104   1.489       .  S
Cr1943     O1946   1.768       .  S
Cr1944     O2252   1.775       .  S
Cr1945     O2237   2.003   1_554  S
Cr1945     O2246   2.000   1_554  S
Cr1945     O1946   1.771       .  S
O1946     Cr2250   1.773   1_554  S
O1947     Cr1965   1.960       .  S
O1947      C1955   1.258       .  A
O1948     Cr1965   1.991   1_556  S
O1948      C2255   1.265       .  A
C1949      O2254   1.263       .  A
C1949      O1950   1.261       .  A
C1949      C2076   1.477       .  S
O1950     Cr1966   1.994       .  S
O1951     Cr1966   2.007       .  S
O1951      C1952   1.269       .  A
C1952      O1953   1.260       .  A
C1952      C2047   1.466       .  S
O1953     Cr2273   1.967       .  S
O1954     Cr1967   2.058       .  S
O1954      C1955   1.279       .  A
C1955      C2119   1.486       .  S
O1956     Cr1965   2.009       .  S
O1956      C1964   1.262       .  A
O1957     Cr1965   1.959       .  S
O1957      C2264   1.259   1_554  A
C1958      O2263   1.262       .  A
C1958      O1959   1.266       .  A
C1958      C2063   1.477       .  S
O1959     Cr1966   2.012       .  S
O1960     Cr1966   1.994       .  S
O1960      C1961   1.262       .  A
C1961      O1962   1.261       .  A
C1961      C2051   1.475       .  S
O1962     Cr2273   1.994       .  S
O1963     Cr1967   1.990       .  S
O1963      C1964   1.256       .  A
C1964      C2083   1.487       .  S
Cr1965     O2274   1.760   1_554  S
Cr1966     O1968   1.776       .  S
Cr1967     O2259   1.979   1_554  S
Cr1967     O2268   2.028   1_554  S
Cr1967     O2274   1.769   1_554  S
O1968     Cr2271   1.767       .  S
O1968     Cr2273   1.775       .  S
O1969     Cr1987   1.999       .  S
O1969      C1977   1.261       .  A
O1970     Cr1987   1.963       .  S
O1970      C1971   1.261       .  A
C1971      O1972   1.272       .  A
C1971      C2043   1.482       .  S
O1972     Cr1988   2.035       .  S
O1973     Cr1988   2.000       .  S
O1973      C1974   1.262       .  A
C1974      O1975   1.262       .  A
C1974      C2128   1.478       .  S
O1975     Cr1989   1.994       .  S
O1976     Cr1989   1.987       .  S
O1976      C1977   1.258       .  A
C1977      C2048   1.469       .  S
O1978     Cr1987   1.973       .  S
O1978      C1986   1.262       .  A
O1979     Cr1987   1.991       .  S
O1979      C1980   1.261   1_565  A
C1980      O1981   1.258   1_545  A
O1981     Cr1988   1.994       .  S
O1982     Cr1988   2.018       .  S
O1982      C1983   1.272       .  A
C1983      O1984   1.261       .  A
C1983      C2112   1.472       .  S
O1984     Cr1989   1.970       .  S
O1985     Cr1989   2.024       .  S
O1985      C1986   1.267       .  A
C1986      C2059   1.473       .  S
Cr1987     O1990   1.759       .  S
Cr1988     O1990   1.774       .  S
Cr1989     O1990   1.768       .  S
O1991     Cr2009   1.958       .  S
O1991      C1999   1.261       .  A
O1992     Cr2009   1.983       .  S
O1992      C1993   1.259       .  A
C1993      O1994   1.261       .  A
O1994     Cr2010   2.009       .  S
O1995     Cr2010   1.980       .  S
O1995      C1996   1.263       .  A
C1996      O1997   1.268       .  A
C1996      C2107   1.462       .  S
O1997     Cr2011   1.999       .  S
O1998     Cr2011   2.018       .  S
O1998      C1999   1.267       .  A
C1999      C2071   1.471   1_565  S
O2000     Cr2009   1.987       .  S
O2000      C2008   1.253       .  A
O2001     Cr2009   1.964       .  S
O2001      C2002   1.258       .  A
C2002      O2003   1.270       .  A
O2003     Cr2010   2.013       .  S
O2004     Cr2010   2.011       .  S
O2004      C2005   1.267       .  A
C2005      O2006   1.259       .  A
C2005      C2091   1.480       .  S
O2006     Cr2011   1.983       .  S
O2007     Cr2011   2.026       .  S
O2007      C2008   1.266       .  A
C2008      C2052   1.481       .  S
Cr2009     O2012   1.765       .  S
Cr2010     O2012   1.774       .  S
Cr2011     O2012   1.769       .  S
O2013     Cr2031   2.010       .  S
O2013      C2021   1.266       .  A
O2014     Cr2031   1.991       .  S
O2014      C2015   1.264       .  A
C2015      O2016   1.267       .  A
O2016     Cr2032   2.020       .  S
O2017     Cr2032   1.991       .  S
O2017      C2018   1.262       .  A
C2018      O2019   1.264       .  A
C2018      C2095   1.473       .  S
O2019     Cr2033   1.999       .  S
O2020     Cr2033   1.988       .  S
O2020      C2021   1.258       .  A
C2021      C2056   1.487       .  S
O2022     Cr2031   1.984       .  S
O2022      C2030   1.262       .  A
O2023     Cr2031   2.003       .  S
O2023      C2024   1.265       .  A
C2024      O2025   1.261       .  A
C2024      C2036   1.471       .  S
O2025     Cr2032   1.990       .  S
O2026     Cr2032   2.016       .  S
O2026      C2027   1.269       .  A
C2027      O2028   1.263       .  A
C2027      C2132   1.478       .  S
O2028     Cr2033   1.986       .  S
O2029     Cr2033   2.030       .  S
O2029      C2030   1.268       .  A
C2030      C2068   1.487       .  S
Cr2031     O2034   1.765       .  S
Cr2032     O2034   1.774       .  S
Cr2033     O2034   1.777       .  S
C2035      C2036   1.344       .  D
C2035      H2037   1.088       .  S
C2036      H2038   1.087       .  S
C2039      C2040   1.340       .  D
C2039      H2041   1.088       .  S
C2040      H2042   1.086       .  S
C2043      C2044   1.345       .  D
C2043      H2045   1.086       .  S
C2044      H2046   1.088       .  S
C2047      C2048   1.341       .  D
C2047      H2049   1.087       .  S
C2048      H2050   1.087       .  S
C2051      H2053   1.087   1_655  S
C2052      H2054   1.087       .  S
C2055      H2057   1.088   1_655  S
C2056      H2058   1.086       .  S
C2059      H2061   1.086       .  S
C2060      H2062   1.088       .  S
C2063      C2064   1.342       .  D
C2063      H2065   1.087       .  S
C2064      H2066   1.087       .  S
C2067      C2068   1.344       .  D
C2067      H2069   1.088       .  S
C2068      H2070   1.086       .  S
C2071      H2073   1.086       .  S
C2072      H2074   1.086       .  S
C2075      C2076   1.342       .  D
C2075      H2383   1.089       .  S
C2076      H2078   1.086       .  S
H2077      C2381   1.089   1_554  S
C2079      C2080   1.339       .  D
C2079      H2081   1.086       .  S
C2080      H2388   1.089       .  S
H2082      C2386   1.088   1_554  S
C2083      C2084   1.346       .  D
C2083      H2085   1.086       .  S
C2084      H2086   1.087       .  S
C2087      C2088   1.347       .  D
C2087      H2089   1.086       .  S
C2091      C2092   1.339       .  D
C2091      H2093   1.088       .  S
C2092      H2094   1.086       .  S
C2095      C2096   1.347       .  D
C2095      H2097   1.087       .  S
C2096      H2098   1.086       .  S
C2099      C2100   1.343       .  D
C2099      H2101   1.087       .  S
C2100      H2102   1.086       .  S
C2103      C2104   1.348       .  D
C2104      H2106   1.086       .  S
C2107      C2108   1.339       .  D
C2107      H2109   1.089       .  S
C2108      H2110   1.086       .  S
C2111      C2112   1.344       .  D
C2111      H2113   1.086       .  S
C2112      H2114   1.087       .  S
C2115      C2116   1.349       .  D
C2115      H2117   1.088       .  S
C2116      H2118   1.085       .  S
C2119      C2120   1.351       .  D
C2119      H2121   1.084       .  S
C2120      H2122   1.085       .  S
C2123      C2124   1.348       .  D
C2123      H2125   1.087       .  S
C2124      H2126   1.086       .  S
C2127      C2128   1.348       .  D
C2127      H2129   1.086       .  S
C2128      H2130   1.087       .  S
C2131      C2132   1.347       .  D
C2131      H2133   1.086       .  S
C2132      H2134   1.087       .  S
C2135      C2136   1.343       .  D
C2135      H2137   1.087       .  S
C2136      H2138   1.088       .  S
C2139      C2140   1.338       .  D
C2139      H2141   1.087       .  S
C2140      H2142   1.087       .  S
O2143     Cr2161   1.986       .  S
O2143      C2151   1.252       .  A
O2144     Cr2161   1.959       .  S
O2144      C2145   1.260       .  A
C2145      O2146   1.277       .  A
C2145      C2441   1.471       .  S
O2146     Cr2162   2.043       .  S
O2147     Cr2162   1.996       .  S
O2147      C2148   1.264       .  A
C2148      O2149   1.262       .  A
C2148      C2426   1.473       .  S
O2149     Cr2163   1.990       .  S
O2150     Cr2163   2.022       .  S
O2150      C2151   1.265       .  A
C2151      C2433   1.476       .  S
O2152     Cr2161   1.956       .  S
O2152      C2160   1.259       .  A
O2153     Cr2161   1.979       .  S
O2153      C2154   1.254       .  A
C2154      O2155   1.254       .  A
C2154      C2445   1.460       .  S
O2155     Cr2162   1.994       .  S
O2156     Cr2162   2.013       .  S
O2156      C2157   1.270       .  A
C2157      O2158   1.266       .  A
C2157      C2429   1.482       .  S
O2158     Cr2163   1.989       .  S
O2159     Cr2163   2.030       .  S
O2159      C2160   1.271       .  A
C2160      C2437   1.458       .  S
Cr2161     O2164   1.764       .  S
Cr2162     O2164   1.776       .  S
Cr2163     O2164   1.765       .  S
O2165     Cr2183   1.956       .  S
O2165      C2173   1.259       .  A
O2166     Cr2183   1.986       .  S
O2166      C2167   1.259       .  A
C2167      O2168   1.263       .  A
C2167      C2421   1.469       .  S
O2168     Cr2184   2.005       .  S
O2169     Cr2184   2.022       .  S
C2170      O2171   1.265       .  A
C2170      C2405   1.492       .  S
O2171     Cr2185   1.981       .  S
O2172     Cr2185   2.040       .  S
C2173      C2414   1.473       .  S
O2174     Cr2183   1.996       .  S
O2174      C2182   1.259       .  A
O2175     Cr2183   1.967       .  S
O2175      C2176   1.262       .  A
C2176      O2177   1.270       .  A
C2176      C2442   1.480       .  S
O2177     Cr2184   2.027       .  S
O2178     Cr2184   2.005       .  S
C2179      O2180   1.264       .  A
C2179      C2409   1.485       .  S
O2180     Cr2185   1.999       .  S
O2181     Cr2185   1.997       .  S
C2182      C2417   1.479       .  S
Cr2183     O2186   1.762       .  S
Cr2184     O2186   1.778       .  S
O2187     Cr2205   1.998       .  S
O2187      C2195   1.261       .  A
O2188     Cr2205   1.963       .  S
O2188      C2189   1.257       .  A
C2189      O2190   1.263       .  A
C2189      C2446   1.477       .  S
O2190     Cr2206   2.019       .  S
O2191     Cr2206   2.000       .  S
C2192      O2193   1.263       .  A
C2192      C2394   1.483       .  S
O2193     Cr2207   2.001       .  S
O2194     Cr2207   1.987   1_455  S
C2195      C2402   1.485       .  S
O2196     Cr2205   1.955       .  S
O2196      C2204   1.256       .  A
O2197     Cr2205   1.998       .  S
O2197      C2198   1.266       .  A
C2198      O2199   1.263       .  A
C2198      C2422   1.478       .  S
O2199     Cr2206   1.996       .  S
O2200     Cr2206   2.003       .  S
C2201      O2202   1.259       .  A
C2201      C2390   1.468       .  S
O2202     Cr2207   1.969       .  S
O2203     Cr2207   2.022   1_455  S
C2204      C2398   1.483       .  S
Cr2205     O2208   1.764       .  S
Cr2206     O2208   1.784       .  S
O2209     Cr2227   1.999       .  S
O2209      C2217   1.258       .  A
O2210     Cr2227   1.962       .  S
C2211      O2212   1.266       .  A
C2211      C2386   1.470       .  S
O2212     Cr2228   2.015       .  S
O2213     Cr2228   1.985       .  S
O2213      C2214   1.262       .  A
C2214      O2215   1.271       .  A
C2214      C2378   1.475       .  S
O2216     Cr2229   2.015       .  S
O2216      C2217   1.262       .  A
C2217      C2406   1.495       .  S
O2218     Cr2227   1.949       .  S
O2218      C2226   1.255       .  A
O2219     Cr2227   1.989       .  S
C2220      O2221   1.263       .  A
C2220      C2381   1.457       .  S
O2221     Cr2228   1.989       .  S
O2222     Cr2228   2.005       .  S
O2222      C2223   1.264       .  A
C2223      O2224   1.264       .  A
C2223      C2373   1.478       .  S
O2225     Cr2229   2.047       .  S
O2225      C2226   1.276       .  A
C2226      C2430   1.479       .  S
Cr2227     O2230   1.771       .  S
Cr2229     O2230   1.770       .  S
O2231     Cr2249   1.984       .  S
O2231      C2239   1.258       .  A
O2232     Cr2249   1.967       .  S
C2233      O2234   1.265       .  A
C2233      C2370   1.464       .  S
O2234     Cr2250   2.002       .  S
O2235     Cr2250   2.004       .  S
O2235      C2236   1.267       .  A
C2236      O2237   1.265       .  A
C2236      C2361   1.485       .  S
O2238     Cr2251   2.013       .  S
O2238      C2239   1.261       .  A
C2239      C2393   1.491       .  S
O2240     Cr2249   1.967       .  S
O2240      C2248   1.259       .  A
O2241     Cr2249   1.984       .  S
C2242      O2243   1.261       .  A
C2242      C2385   1.470       .  S
O2243     Cr2250   1.993       .  S
O2244     Cr2250   1.975       .  S
O2244      C2245   1.261       .  A
C2245      O2246   1.268       .  A
C2245      C2366   1.461       .  S
O2247     Cr2251   2.043       .  S
O2247      C2248   1.273       .  A
C2248      C2410   1.492       .  S
Cr2249     O2252   1.767       .  S
Cr2251     O2252   1.771       .  S
O2253     Cr2271   1.967       .  S
O2253      C2261   1.260       .  A
O2254     Cr2271   1.986       .  S
C2255      O2256   1.255       .  A
C2255      C2382   1.466       .  S
O2256     Cr2272   1.977       .  S
O2257     Cr2272   2.016       .  S
O2257      C2258   1.269       .  A
C2258      O2259   1.262       .  A
C2258      C2353   1.481       .  S
O2260     Cr2273   2.021       .  S
O2260      C2261   1.268       .  A
C2261      C2425   1.477       .  S
O2262     Cr2271   1.996       .  S
O2262      C2270   1.260       .  A
O2263     Cr2271   1.978       .  S
C2264      O2265   1.269       .  A
C2264      C2369   1.469       .  S
O2265     Cr2272   2.021       .  S
O2266     Cr2272   1.952       .  S
O2266      C2267   1.251       .  A
C2267      O2268   1.273       .  A
C2267      C2357   1.475       .  S
O2269     Cr2273   1.987       .  S
O2269      C2270   1.257       .  A
C2270      C2389   1.471       .  S
Cr2272     O2274   1.777       .  S
O2275     Cr2293   2.000       .  S
O2275      C2283   1.257       .  A
O2276     Cr2293   1.964       .  S
O2276      C2277   1.260       .  A
C2277      O2278   1.266       .  A
C2277      C2349   1.470       .  S
O2278     Cr2294   2.015       .  S
O2279     Cr2294   1.974       .  S
O2279      C2280   1.259       .  A
C2280      O2281   1.273       .  A
C2280      C2434   1.485       .  S
O2281     Cr2295   2.021       .  S
O2282     Cr2295   1.996       .  S
O2282      C2283   1.255       .  A
C2283      C2354   1.482       .  S
O2284     Cr2293   1.950       .  S
O2284      C2292   1.258       .  A
O2285     Cr2293   1.993       .  S
O2285      C2286   1.262   1_565  A
C2286      O2287   1.258   1_545  A
O2287     Cr2294   1.985       .  S
O2288     Cr2294   2.002       .  S
O2288      C2289   1.264       .  A
C2289      O2290   1.260       .  A
C2289      C2418   1.477       .  S
O2290     Cr2295   1.981       .  S
O2291     Cr2295   2.050       .  S
O2291      C2292   1.279       .  A
C2292      C2365   1.483       .  S
Cr2293     O2296   1.770       .  S
Cr2294     O2296   1.781       .  S
Cr2295     O2296   1.767       .  S
O2297     Cr2315   1.960       .  S
O2297      C2305   1.258       .  A
O2298     Cr2315   2.004       .  S
O2298      C2299   1.268       .  A
C2299      O2300   1.261       .  A
O2300     Cr2316   1.989       .  S
O2301     Cr2316   1.993       .  S
O2301      C2302   1.265       .  A
C2302      O2303   1.266       .  A
C2302      C2413   1.466       .  S
O2303     Cr2317   1.993       .  S
O2304     Cr2317   2.047       .  S
O2304      C2305   1.273       .  A
C2305      C2377   1.492       .  S
O2306     Cr2315   1.996       .  S
O2306      C2314   1.262       .  A
O2307     Cr2315   1.964       .  S
O2307      C2308   1.254       .  A
C2308      O2309   1.264       .  A
O2309     Cr2316   2.004       .  S
O2310     Cr2316   1.992       .  S
O2310      C2311   1.261       .  A
C2311      O2312   1.270       .  A
C2311      C2397   1.491       .  S
O2312     Cr2317   2.023       .  S
O2313     Cr2317   2.002       .  S
O2313      C2314   1.261       .  A
C2314      C2358   1.488       .  S
Cr2315     O2318   1.765       .  S
Cr2316     O2318   1.774       .  S
Cr2317     O2318   1.774       .  S
O2319     Cr2337   2.005       .  S
O2319      C2327   1.265       .  A
O2320     Cr2337   1.983       .  S
O2320      C2321   1.265       .  A
C2321      O2322   1.265       .  A
O2322     Cr2338   2.009       .  S
O2323     Cr2338   1.991       .  S
O2323      C2324   1.263       .  A
C2324      O2325   1.266       .  A
C2324      C2401   1.480       .  S
O2325     Cr2339   2.010       .  S
O2326     Cr2339   1.988       .  S
O2326      C2327   1.259       .  A
C2327      C2362   1.482       .  S
O2328     Cr2337   1.976       .  S
O2328      C2336   1.261       .  A
O2329     Cr2337   1.996       .  S
O2329      C2330   1.264       .  A
C2330      O2331   1.261       .  A
C2330      C2342   1.479       .  S
O2331     Cr2338   1.999       .  S
O2332     Cr2338   1.990       .  S
O2332      C2333   1.266       .  A
C2333      O2334   1.262       .  A
C2333      C2438   1.477       .  S
O2334     Cr2339   1.987       .  S
O2335     Cr2339   2.031       .  S
O2335      C2336   1.269       .  A
C2336      C2374   1.482       .  S
Cr2337     O2340   1.762       .  S
Cr2338     O2340   1.772       .  S
Cr2339     O2340   1.777       .  S
C2341      C2342   1.345       .  D
C2341      H2343   1.088       .  S
C2342      H2344   1.086       .  S
C2345      C2346   1.345       .  D
C2345      H2347   1.087       .  S
C2346      H2348   1.086       .  S
C2349      C2350   1.340       .  D
C2349      H2351   1.087       .  S
C2350      H2352   1.088       .  S
C2353      C2354   1.346       .  D
C2353      H2355   1.087       .  S
C2354      H2356   1.087       .  S
C2357      H2359   1.087       .  S
C2358      H2360   1.086       .  S
C2361      H2363   1.087   1_655  S
C2362      H2364   1.086       .  S
C2365      H2367   1.086       .  S
C2366      H2368   1.090       .  S
C2369      C2370   1.344       .  D
C2369      H2371   1.087       .  S
C2370      H2372   1.088   1_556  S
C2373      C2374   1.343       .  D
C2373      H2375   1.088       .  S
C2374      H2376   1.086       .  S
C2377      H2379   1.085       .  S
C2378      H2380   1.086       .  S
C2381      C2382   1.335       .  D
C2382      H2384   1.086       .  S
C2385      C2386   1.345       .  D
C2385      H2387   1.086       .  S
C2389      C2390   1.341       .  D
C2389      H2391   1.087       .  S
C2390      H2392   1.087       .  S
C2393      C2394   1.351       .  D
C2393      H2395   1.086       .  S
C2397      C2398   1.346       .  D
C2397      H2399   1.086       .  S
C2398      H2400   1.087       .  S
C2401      C2402   1.347       .  D
C2401      H2403   1.087       .  S
C2402      H2404   1.086       .  S
C2405      C2406   1.351       .  D
C2405      H2407   1.087       .  S
C2406      H2408   1.086       .  S
C2409      C2410   1.349       .  D
C2410      H2412   1.086       .  S
C2413      C2414   1.340       .  D
C2413      H2415   1.089       .  S
C2414      H2416   1.086       .  S
C2417      C2418   1.348       .  D
C2417      H2419   1.086       .  S
C2418      H2420   1.087       .  S
C2421      C2422   1.343       .  D
C2421      H2423   1.089       .  S
C2422      H2424   1.086       .  S
C2425      C2426   1.340       .  D
C2425      H2427   1.086       .  S
C2426      H2428   1.088       .  S
C2429      C2430   1.349       .  D
C2429      H2431   1.087       .  S
C2430      H2432   1.086       .  S
C2433      C2434   1.340       .  D
C2433      H2435   1.087       .  S
C2434      H2436   1.087       .  S
C2437      C2438   1.343       .  D
C2437      H2439   1.086       .  S
C2438      H2440   1.087       .  S
C2441      C2442   1.342       .  D
C2441      H2443   1.088       .  S
C2442      H2444   1.087       .  S
C2445      C2446   1.339       .  D
C2445      H2447   1.087       .  S
C2446      H2448   1.087       .  S
