geometry optimzed in LAMMPS
_audit_creation_date              2020-11-30 
_audit_creation_method            'lammps2cif' 
_symmetry_space_group_name_H-M    'P1' 
_symmetry_Int_Tables_number       1 
_symmetry_cell_setting            triclinic 
loop_ 
_symmetry_equiv_pos_as_xyz 
  x,y,z 
_cell_length_a                    58.1117228 
_cell_length_b                    58.26870253236286 
_cell_length_c                    35.180644813499164 
_cell_angle_alpha                 89.99416394323057 
_cell_angle_beta                  89.98764733442808 
_cell_angle_gamma                 120.09366031683383 
loop_ 
_atom_site_label 
_atom_site_type_symbol 
_atom_site_fract_x 
_atom_site_fract_y 
_atom_site_fract_z 
_atom_site_charge 
O1          O  0.60974789  0.41452760  0.47168651    -0.87400
C2          C  0.55959300  0.38537130  0.38229273     0.88600
Mg3        Mg  0.59630499  0.40936293  0.52914041     1.58100
O4          O  0.58968964  0.45410568  0.39181756    -0.87200
O5          O  0.63434624  0.44718810  0.43259354    -0.74500
C6          C  0.50707899  0.44868428  0.53133810     0.93600
O7          O  0.55196202  0.36321203  0.46646045    -0.74300
O8          O  0.51298879  0.43293298  0.54785868    -0.81800
Mg9        Mg  0.59265914  0.37979612  0.43678969     1.58000
C10         C  0.54471585  0.49087801  0.38363218     0.93600
O11         O  0.63277219  0.39321023  0.40813048    -0.80100
H12         H  0.62242596  0.48989310  0.39340011    -0.05400
C13         C  0.51507014  0.41281610  0.43958342     0.88500
O14         O  0.60276471  0.45189002  0.52887856    -0.74600
O15         O  0.58187840  0.39951137  0.39627819    -0.87400
O16         O  0.54994213  0.47536916  0.36478796    -0.80200
C17         C  0.57778942  0.43140189  0.29552114     0.93700
C18         C  0.64647040  0.40623826  0.37953462     0.93500
Mg19       Mg  0.55471433  0.46904100  0.46381180     1.58000
O20         O  0.51698025  0.45935233  0.49926784    -0.80100
O21         O  0.59401335  0.48509080  0.43124085    -0.74300
O22         O  0.59484149  0.42834522  0.31434854    -0.80200
O23         O  0.60240690  0.35684705  0.47813867    -0.81900
O24         O  0.55484783  0.42069051  0.58738479    -0.80200
C25         C  0.60270284  0.47688793  0.40449386     0.88000
O26         O  0.56680648  0.44935061  0.50454445    -0.87300
O27         O  0.53626898  0.43284149  0.43100846    -0.87500
O28         O  0.51139049  0.40213515  0.47218419    -0.74500
Mg29       Mg  0.61293379  0.43670046  0.37486784     1.58000
O30         O  0.56164872  0.43728673  0.31113904    -0.81900
H31         H  0.64496823  0.44515734  0.48687542    -0.05600
O32         O  0.55621668  0.39301751  0.50848103    -0.87200
H33         H  0.52256174  0.35823183  0.50261977    -0.05400
H34         H  0.59725714  0.48351644  0.52335832    -0.05600
C35         C  0.54284770  0.37097711  0.49337108     0.87900
C36         C  0.63033374  0.43569452  0.46464713     0.88500
C37         C  0.58904591  0.46244368  0.51924416     0.88600
H38         H  0.49952365  0.40375325  0.41846596    -0.05600
O39         O  0.54422788  0.39432027  0.37459661    -0.74600
Mg40       Mg  0.53541849  0.41268990  0.52782028     1.58000
H41         H  0.55249427  0.36448219  0.37820471    -0.05600
C42         C  0.59768384  0.35282381  0.51337671     0.93600
O43         O  0.58370542  0.40612834  0.59073527    -0.81800
C44         C  0.56986116  0.41481621  0.60635354     0.93600
O45         O  0.63997565  0.42001366  0.35877063    -0.81800
Mg46       Mg  0.54907871  0.43572005  0.37276664     1.58200
O47         O  0.59250264  0.36763495  0.53413814    -0.80200
O48         O  0.54279725  0.49006701  0.41975862    -0.81900
O49         O  0.60720983  0.41210490  0.97176939    -0.87400
C50         C  0.55676950  0.38407768  0.88254996     0.88600
Mg51       Mg  0.59414305  0.40734369  0.02930776     1.58100
O52         O  0.58876961  0.45293470  0.89201712    -0.87200
O53         O  0.63244778  0.44444475  0.93264625    -0.74500
C54         C  0.50764670  0.45006173  0.03180306     0.93600
O55         O  0.54872145  0.36173821  0.96674824    -0.74300
O56         O  0.51301603  0.43392087  0.04832194    -0.81800
Mg57       Mg  0.58922651  0.37735546  0.93690558     1.58000
C58         C  0.54588165  0.49190028  0.88411616     0.93600
O59         O  0.62909945  0.38975081  0.90839977    -0.80100
H60         H  0.62217634  0.48818882  0.89348327    -0.05400
C61         C  0.51416973  0.41348392  0.94009475     0.88500
O62         O  0.60175735  0.45027112  0.02918144    -0.74600
O63         O  0.57917852  0.39769349  0.89645140    -0.87400
O64         O  0.55044251  0.47594215  0.86522851    -0.80200
C65         C  0.57631958  0.43040058  0.79569602     0.93700
C66         C  0.64307165  0.40254382  0.87988891     0.93500
Mg67       Mg  0.55510909  0.46932499  0.96421493     1.58000
O68         O  0.51776564  0.46067955  0.99979794    -0.80100
O69         O  0.59420609  0.48430245  0.93150220    -0.74300
O70         O  0.59293414  0.42665354  0.81451118    -0.80200
O71         O  0.59833409  0.35393874  0.97804014    -0.81900
O72         O  0.55396000  0.42020780  0.08774934    -0.80200
C73         C  0.60237906  0.47565435  0.90466821     0.88000
O74         O  0.56634261  0.44882721  0.00480219    -0.87300
O75         O  0.53563088  0.43315762  0.93140263    -0.87500
O76         O  0.51031700  0.40272973  0.97267613    -0.74500
Mg77       Mg  0.61099346  0.43445654  0.87500764     1.58000
O78         O  0.56060597  0.43684925  0.81135902    -0.81900
H79         H  0.64286908  0.44204763  0.98690174    -0.05600
O80         O  0.55406615  0.39185281  0.00894072    -0.87200
H81         H  0.51980941  0.35760964  0.00324732    -0.05400
H82         H  0.59732239  0.48255119  0.02375265    -0.05600
C83         C  0.54013689  0.36989922  0.99384648     0.87900
C84         C  0.62814840  0.43291520  0.96469915     0.88500
C85         C  0.58860495  0.46142193  0.01955969     0.88600
H86         H  0.49851757  0.40477421  0.91908069    -0.05600
O87         O  0.54199016  0.39371491  0.87488358    -0.74600
Mg88       Mg  0.53437094  0.41262812  0.02826267     1.58000
H89         H  0.54905090  0.36307376  0.87850026    -0.05600
C90         C  0.59432324  0.35029788  0.01343687     0.93600
O91         O  0.58185581  0.40445447  0.09091382    -0.81800
C92         C  0.56863767  0.41382275  0.10660522     0.93600
O93         O  0.63709139  0.41663248  0.85892319    -0.81800
Mg94       Mg  0.54822507  0.43565131  0.87308541     1.58200
O95         O  0.58966132  0.36537321  0.03441719    -0.80200
O96         O  0.54408014  0.49118257  0.92026253    -0.81900
O97         O  0.39250576  0.58604201  0.22375558    -0.87400
C98         C  0.44281511  0.61491323  0.13436625     0.88600
Mg99       Mg  0.40571468  0.59114945  0.28123177     1.58100
O100        O  0.41191670  0.54606207  0.14319419    -0.87200
O101        O  0.36785487  0.55353164  0.18446233    -0.74500
C102        C  0.49342218  0.55024870  0.28260194     0.93600
O103        O  0.45060617  0.63715881  0.21854795    -0.74300
O104        O  0.48773483  0.56605151  0.29943606    -0.81800
Mg105      Mg  0.40996953  0.62078656  0.18888383     1.58000
C106        C  0.45605535  0.50851455  0.13502737     0.93600
O107        O  0.36992714  0.60751347  0.16074813    -0.80100
H108        H  0.37881487  0.51055045  0.14438148    -0.05400
C109        C  0.48624453  0.58652617  0.19141416     0.88500
O110        O  0.39867710  0.54841551  0.28126258    -0.74600
O111        O  0.42052652  0.60088872  0.14840289    -0.87400
O112        O  0.45127532  0.52433954  0.11619436    -0.80200
C113        C  0.42430099  0.56917277  0.04712599     0.93700
C114        C  0.35613132  0.59462767  0.13220477     0.93500
Mg115      Mg  0.44589702  0.53040284  0.21532166     1.58000
O116        O  0.48338417  0.53968978  0.25057825    -0.80100
O117        O  0.40674990  0.51480829  0.18269510    -0.74300
O118        O  0.40738469  0.57242830  0.06602239    -0.80200
O119        O  0.40039367  0.64388652  0.22996499    -0.81900
O120        O  0.44642122  0.57901280  0.33923668    -0.80200
C121        C  0.39851793  0.52327871  0.15572659     0.88000
O122        O  0.43418806  0.55047703  0.25613214    -0.87300
O123        O  0.46495638  0.56666350  0.18267562    -0.87500
O124        O  0.48992984  0.59717642  0.22403670    -0.74500
Mg125      Mg  0.38922643  0.56400317  0.12663161     1.58000
O126        O  0.44022105  0.56296676  0.06269005    -0.81900
H127        H  0.35722989  0.55542171  0.23880441    -0.05600
O128        O  0.44574510  0.60714100  0.26058150    -0.87200
H129        H  0.47966885  0.64173178  0.25506473    -0.05400
H130        H  0.40371763  0.51651445  0.27550809    -0.05600
C131        C  0.45940280  0.62918863  0.24560380     0.87900
C132        C  0.37189023  0.56492611  0.21660373     0.88500
C133        C  0.41207177  0.53759419  0.27125578     0.88600
H134        H  0.50187876  0.59549601  0.17039591    -0.05600
O135        O  0.45796055  0.60575712  0.12641433    -0.74600
Mg136      Mg  0.46590052  0.58685346  0.27965149     1.58000
H137        H  0.45009864  0.63585103  0.13042785    -0.05600
C138        C  0.40492425  0.64783659  0.26522093     0.93600
O139        O  0.41826143  0.59442996  0.34273114    -0.81800
C140        C  0.43171775  0.58527861  0.35826278     0.93600
O141        O  0.36260567  0.58109862  0.11090312    -0.81800
Mg142      Mg  0.45253653  0.56414717  0.12436818     1.58200
O143        O  0.40992106  0.63296874  0.28611142    -0.80200
O144        O  0.45753444  0.50902441  0.17121193    -0.81900
O145        O  0.39311243  0.58602223  0.72336714    -0.87400
C146        C  0.44322266  0.61426795  0.63370154     0.88600
Mg147      Mg  0.40651046  0.59122821  0.78074008     1.58100
O148        O  0.41220931  0.54546576  0.64348270    -0.87200
O149        O  0.36821402  0.55328702  0.68458393    -0.74500
C150        C  0.49469846  0.55067313  0.78205529     0.93600
O151        O  0.45124744  0.63707379  0.71768912    -0.74300
O152        O  0.48899075  0.56653206  0.79868457    -0.81800
Mg153      Mg  0.41056599  0.62064260  0.68817406     1.58000
C154        C  0.45621940  0.50757664  0.63501035     0.93600
O155        O  0.37051563  0.60751916  0.65995353    -0.80100
H156        H  0.37914204  0.50993374  0.64512775    -0.05400
C157        C  0.48682542  0.58620209  0.69056847     0.88500
O158        O  0.39966911  0.54855953  0.78081962    -0.74600
O159        O  0.42094405  0.60043699  0.64790304    -0.87400
O160        O  0.45122653  0.52325275  0.61615559    -0.80200
C161        C  0.42406721  0.56798180  0.54714673     0.93700
C162        C  0.35659189  0.59447317  0.63158189     0.93500
Mg163      Mg  0.44674159  0.53014399  0.71523276     1.58000
O164        O  0.48448508  0.53979196  0.75024418    -0.80100
O165        O  0.40738638  0.51434140  0.68298799    -0.74300
O166        O  0.40735392  0.57144727  0.56617918    -0.80200
O167        O  0.40110816  0.64390677  0.72916188    -0.81900
O168        O  0.44765326  0.57950972  0.83887469    -0.80200
C169        C  0.39891613  0.52272226  0.65619935     0.88000
O170        O  0.43517685  0.55047416  0.75588270    -0.87300
O171        O  0.46558319  0.56617340  0.68213195    -0.87500
O172        O  0.49056974  0.59709039  0.72303028    -0.74500
Mg173      Mg  0.38944726  0.56339429  0.62673383     1.58000
O174        O  0.43996538  0.56168220  0.56253061    -0.81900
H175        H  0.35779365  0.55566738  0.73885367    -0.05600
O176        O  0.44651138  0.60720539  0.75989289    -0.87200
H177        H  0.48040169  0.64179449  0.75412487    -0.05400
H178        H  0.40463132  0.51659776  0.77532284    -0.05600
C179        C  0.46011564  0.62920791  0.74477478     0.87900
C180        C  0.37239640  0.56493705  0.71652469     0.88500
C181        C  0.41303923  0.53767615  0.77097426     0.88600
H182        H  0.50235834  0.59512205  0.66939593    -0.05600
O183        O  0.45820931  0.60491717  0.62574486    -0.74600
Mg184      Mg  0.46686211  0.58706371  0.77895905     1.58000
H185        H  0.45063868  0.63521426  0.62957696    -0.05600
C186        C  0.40529023  0.64774903  0.76450511     0.93600
O187        O  0.41924437  0.59463863  0.84221453    -0.81800
C188        C  0.43288030  0.58572626  0.85786037     0.93600
O189        O  0.36280251  0.58052136  0.61073681    -0.81800
Mg190      Mg  0.45268684  0.56324490  0.62402909     1.58200
O191        O  0.41030741  0.63294001  0.78552980    -0.80200
O192        O  0.45812576  0.50842654  0.67117021    -0.81900
O193        O  0.19423116  0.60780661  0.06089024    -0.87400
C194        C  0.17218486  0.55889616  0.96972417     0.88600
Mg195      Mg  0.18573864  0.59391694  0.11812267     1.58100
O196        O  0.13520335  0.59074303  0.98014704    -0.87200
O197        O  0.18714326  0.63336021  0.02240742    -0.74500
C198        C  0.05665687  0.50723252  0.11654265     0.93600
O199        O  0.18611024  0.54950148  0.05366111    -0.74300
O200        O  0.07798875  0.51260741  0.13369960    -0.81800
Mg201      Mg  0.21107079  0.59033996  0.02514143     1.58000
C202        C  0.05323458  0.54796235  0.97155797     0.93600
O203        O  0.23873961  0.63057842  0.99803858    -0.80100
H204        H  0.13345917  0.62408971  0.98293139    -0.05400
C205        C  0.10035895  0.51589158  0.02583663     0.88500
O206        O  0.15029335  0.60148942  0.11851411    -0.74600
O207        O  0.18077925  0.58092258  0.98459497    -0.87400
O208        O  0.07385653  0.55286251  0.95250488    -0.80200
C209        C  0.14594021  0.57938842  0.88346379     0.93700
C210        C  0.24013915  0.64489783  0.96992097     0.93500
Mg211      Mg  0.08502453  0.55612183  0.05158561     1.58000
O212        O  0.05642165  0.51806186  0.08514336    -0.80100
O213        O  0.10924759  0.59570469  0.02033450    -0.74300
O214        O  0.16625466  0.59564530  0.90278393    -0.80200
O215        O  0.24339641  0.59868573  0.06624596    -0.81900
O216        O  0.13207148  0.55299847  0.17515022    -0.80200
C217        C  0.12610765  0.60417979  0.99347833     0.88000
O218        O  0.11661856  0.56669545  0.09243592    -0.87300
O219        O  0.10191620  0.53730794  0.01789895    -0.87500
O220        O  0.10719350  0.51161914  0.05821770    -0.74500
Mg221      Mg  0.17610935  0.61295244  0.96391454     1.58000
O222        O  0.12351318  0.56376234  0.89864311    -0.81900
H223        H  0.19947615  0.64301730  0.07700551    -0.05600
O224        O  0.16133176  0.55438627  0.09642176    -0.87200
H225        H  0.16130581  0.52028894  0.08971023    -0.05400
H226        H  0.11348802  0.59706002  0.11281821    -0.05600
C227        C  0.16937789  0.54066380  0.08080767     0.87900
C228        C  0.19417902  0.62867495  0.05438221     0.88500
C229        C  0.12605051  0.58854256  0.10822578     0.88600
H230        H  0.09370683  0.50065186  0.00428489    -0.05600
O231        O  0.14781613  0.54433559  0.96129330    -0.74600
Mg232      Mg  0.12073676  0.53447677  0.11480586     1.58000
H233        H  0.18558446  0.55132586  0.96536703    -0.05600
C234        C  0.24301219  0.59403696  0.10142866     0.93600
O235        O  0.17583628  0.58062849  0.17937114    -0.81800
C236        C  0.15301323  0.56732513  0.19456786     0.93600
O237        O  0.22023229  0.63911938  0.94860930    -0.81800
Mg238      Mg  0.11205645  0.55060999  0.95999096     1.58200
O239        O  0.22327489  0.58916312  0.12271272    -0.80200
O240        O  0.05217063  0.54576055  0.00765130    -0.81900
O241        O  0.19517409  0.60955400  0.55956252    -0.87400
C242        C  0.17249896  0.55927878  0.47023486     0.88600
Mg243      Mg  0.18714791  0.59627899  0.61706435     1.58100
O244        O  0.13508637  0.59070372  0.47975909    -0.87200
O245        O  0.18724738  0.63429569  0.52058798    -0.74500
C246        C  0.05784299  0.50928182  0.61938712     0.93600
O247        O  0.18734258  0.55130939  0.55389878    -0.74300
O248        O  0.07955553  0.51502622  0.63572729    -0.81800
Mg249      Mg  0.21187453  0.59179428  0.52417047     1.58000
C250        C  0.05303494  0.54737103  0.47158658     0.93600
O251        O  0.23897618  0.63168657  0.49588397    -0.80100
H252        H  0.13288245  0.62383241  0.48112610    -0.05400
C253        C  0.10069900  0.51647418  0.52769618     0.88500
O254        O  0.15145394  0.60359464  0.61724237    -0.74600
O255        O  0.18115061  0.58160021  0.48414256    -0.87400
O256        O  0.07377188  0.55209302  0.45301790    -0.80200
C257        C  0.14520170  0.57805722  0.38343260     0.93700
C258        C  0.24001281  0.64568966  0.46756350     0.93500
Mg259      Mg  0.08515113  0.55685792  0.55198402     1.58000
O260        O  0.05694733  0.51938244  0.58758170    -0.80100
O261        O  0.10893574  0.59590447  0.51925838    -0.74300
O262        O  0.16560570  0.59488786  0.40207568    -0.80200
O263        O  0.24474144  0.60089847  0.56476419    -0.81900
O264        O  0.13402149  0.55617209  0.67537961    -0.80200
C265        C  0.12577842  0.60413809  0.49238030     0.88000
O266        O  0.11735859  0.56839992  0.59247508    -0.87300
O267        O  0.10212520  0.53773156  0.51911717    -0.87500
O268        O  0.10797580  0.51279588  0.56010105    -0.74500
Mg269      Mg  0.17586352  0.61309362  0.46269262     1.58000
O270        O  0.12304624  0.56241687  0.39925252    -0.81900
H271        H  0.20014525  0.64481397  0.57480583    -0.05600
O272        O  0.16257690  0.55652325  0.59631521    -0.87200
H273        H  0.16277589  0.52246920  0.59061034    -0.05400
H274        H  0.11466539  0.59926208  0.61177003    -0.05600
C275        C  0.17068009  0.54270581  0.58115066     0.87900
C276        C  0.19476642  0.63018826  0.55257177     0.88500
C277        C  0.12709032  0.59056239  0.60742817     0.88600
H278        H  0.09380665  0.50087278  0.50667659    -0.05600
O279        O  0.14803851  0.54436895  0.46262910    -0.74600
Mg280      Mg  0.12210401  0.53671409  0.61570541     1.58000
H281        H  0.18595726  0.55175074  0.46614190    -0.05600
C282        C  0.24453148  0.59635090  0.59996165     0.93600
O283        O  0.17782267  0.58375367  0.67874226    -0.81800
C284        C  0.15512447  0.57066543  0.69437152     0.93600
O285        O  0.21987813  0.63955335  0.44653821    -0.81800
Mg286      Mg  0.11205841  0.55023657  0.46090808     1.58200
O287        O  0.22488642  0.59160624  0.62141903    -0.80200
O288        O  0.05178669  0.54552885  0.50778814    -0.81900
O289        O  0.80658219  0.41504383  0.26955956    -0.87400
C290        C  0.82876677  0.38804488  0.36024038     0.88600
Mg291      Mg  0.81470134  0.40925428  0.21229441     1.58100
O292        O  0.86641837  0.45682301  0.34967116    -0.87200
O293        O  0.81452480  0.44804392  0.30788189    -0.74500
C294        C  0.94377732  0.45113672  0.21225380     0.93600
O295        O  0.81437759  0.36472827  0.27675756    -0.74300
O296        O  0.92227227  0.43539494  0.19527411    -0.81800
Mg297      Mg  0.78975613  0.38091598  0.30560385     1.58000
C298        C  0.94833209  0.49519598  0.35847423     0.93600
O299        O  0.76251087  0.39387849  0.33319569    -0.80100
H300        H  0.86870232  0.49217848  0.34754676    -0.05400
C301        C  0.90050823  0.41630503  0.30327487     0.88500
O302        O  0.85040923  0.45227264  0.21161028    -0.74600
O303        O  0.82034314  0.40170888  0.34566246    -0.87400
O304        O  0.92753571  0.47939256  0.37708287    -0.80200
C305        C  0.85589097  0.43470031  0.44624733     0.93700
C306        C  0.76153624  0.40703363  0.36132592     0.93500
Mg307      Mg  0.91631691  0.47209722  0.27807422     1.58000
O308        O  0.94436741  0.46218925  0.24383665    -0.80100
O309        O  0.89262327  0.48783997  0.30980015    -0.74300
O310        O  0.83557692  0.43105941  0.42731451    -0.80200
O311        O  0.75704402  0.35683252  0.26505538    -0.81900
O312        O  0.86801025  0.42204902  0.15436369    -0.80200
C313        C  0.87578432  0.47947728  0.33667513     0.88000
O314        O  0.88428259  0.45125320  0.23733129    -0.87300
O315        O  0.89912668  0.43622788  0.31142634    -0.87500
O316        O  0.89343303  0.40523311  0.27090395    -0.74500
Mg317      Mg  0.82564135  0.43863749  0.36630834     1.58000
O318        O  0.87808575  0.44105824  0.43070922    -0.81900
H319        H  0.80188466  0.44534865  0.25345222    -0.05600
O320        O  0.83915453  0.39420251  0.23375638    -0.87200
H321        H  0.83896812  0.36003435  0.24063876    -0.05400
H322        H  0.88722038  0.48471192  0.21710345    -0.05600
C323        C  0.83105020  0.37246896  0.24952890     0.87900
C324        C  0.80709740  0.43620008  0.27603075     0.88500
C325        C  0.87471039  0.46362817  0.22175463     0.88600
H326        H  0.90721311  0.40763474  0.32462738    -0.05600
O327        O  0.85316291  0.39752262  0.36816098    -0.74600
Mg328      Mg  0.87964519  0.41473257  0.21467438     1.58000
H329        H  0.81517283  0.36712053  0.36466657    -0.05600
C330        C  0.75740666  0.35203499  0.23006424     0.93600
O331        O  0.82417500  0.40557247  0.15082635    -0.81800
C332        C  0.84689712  0.41525044  0.13523334     0.93600
O333        O  0.78171671  0.42124049  0.38212430    -0.81800
Mg334      Mg  0.88919264  0.43932157  0.36939218     1.58200
O335        O  0.77707962  0.36672369  0.20851325    -0.80200
O336        O  0.94960137  0.49436267  0.32230900    -0.81900
O337        O  0.80676170  0.38972373  0.81117384    -0.87400
C338        C  0.82781579  0.43902690  0.72064236     0.88600
Mg339      Mg  0.81415610  0.40349915  0.86858390     1.58100
O340        O  0.86749708  0.41021166  0.73200684    -0.87200
O341        O  0.81609366  0.36561072  0.77297641    -0.74500
C342        C  0.94260613  0.49434659  0.87076584     0.93600
O343        O  0.81235182  0.44689403  0.80419426    -0.74300
O344        O  0.92078300  0.48794103  0.88737678    -0.81800
Mg345      Mg  0.78908410  0.40606863  0.77494754     1.58000
C346        C  0.94908141  0.45601856  0.72482207     0.93600
O347        O  0.76318019  0.36581044  0.74674806    -0.80100
H348        H  0.87121753  0.37796324  0.73446942    -0.05400
C349        C  0.89896359  0.48462841  0.77882676     0.88500
O350        O  0.85089466  0.39789130  0.86961723    -0.74600
O351        O  0.82011472  0.41705711  0.73522679    -0.87400
O352        O  0.92831427  0.45042484  0.70571783    -0.80200
C353        C  0.85690383  0.42131271  0.63518284     0.93700
C354        C  0.76292918  0.35202072  0.71861686     0.93500
Mg355      Mg  0.91649448  0.44604077  0.80445136     1.58000
O356        O  0.94367635  0.48423679  0.83909381    -0.80100
O357        O  0.89410670  0.40656401  0.77246033    -0.74300
O358        O  0.83681954  0.40409125  0.65394824    -0.80200
O359        O  0.75571816  0.39602912  0.81512362    -0.81900
O360        O  0.86660774  0.44524422  0.92709931    -0.80200
C361        C  0.87751437  0.39760055  0.74530994     0.88000
O362        O  0.88416892  0.43369698  0.84467939    -0.87300
O363        O  0.89839120  0.46369540  0.77070813    -0.87500
O364        O  0.89152869  0.48824646  0.81116551    -0.74500
Mg365      Mg  0.82700286  0.38637924  0.71474295     1.58000
O366        O  0.87880563  0.43774705  0.65091996    -0.81900
H367        H  0.80323168  0.35518502  0.82723642    -0.05600
O368        O  0.83764383  0.44336391  0.84755465    -0.87200
H369        H  0.83599953  0.47656949  0.84043955    -0.05400
H370        H  0.88836029  0.40387467  0.86473783    -0.05600
C371        C  0.82885771  0.45633772  0.83157161     0.87900
C372        C  0.80813527  0.36953822  0.80472178     0.88500
C373        C  0.87523553  0.41172201  0.85997488     0.88600
H374        H  0.90528466  0.49998638  0.75749756    -0.05600
O375        O  0.85213067  0.45473042  0.71307869    -0.74600
Mg376      Mg  0.87810079  0.46466397  0.86722560     1.58000
H377        H  0.81361393  0.44556025  0.71591574    -0.05600
C378        C  0.75560513  0.40089816  0.85015003     0.93600
O379        O  0.82303537  0.41647135  0.93030601    -0.81800
C380        C  0.84564232  0.43013757  0.94603486     0.93600
O381        O  0.78343855  0.35862894  0.69822454    -0.81800
Mg382      Mg  0.88916523  0.45062817  0.71253072     1.58200
O383        O  0.77535944  0.40654282  0.87192939    -0.80200
O384        O  0.95002397  0.45814825  0.76093536    -0.81900
O385        O  0.60815139  0.19233847  0.11129253    -0.87400
C386        C  0.55834250  0.17162115  0.20116634     0.88600
Mg387      Mg  0.59474401  0.18420148  0.05389124     1.58100
O388        O  0.58872989  0.13324745  0.19191436    -0.87200
O389        O  0.63291816  0.18451527  0.15039606    -0.74500
C390        C  0.50583623  0.05591077  0.05367226     0.93600
O391        O  0.55033712  0.18592307  0.11693524    -0.74300
O392        O  0.51171813  0.07737886  0.03660567    -0.81800
Mg393      Mg  0.59113519  0.21003200  0.14621493     1.58000
C394        C  0.54442775  0.05176915  0.20048529     0.93600
O395        O  0.63135191  0.23668497  0.17401441    -0.80100
H396        H  0.62165894  0.13055150  0.19004645    -0.05400
C397        C  0.51414760  0.09984945  0.14447931     0.88500
O398        O  0.60128042  0.14820199  0.05388066    -0.74600
O399        O  0.58053760  0.17968642  0.18690421    -0.87400
O400        O  0.54940172  0.07246736  0.21919194    -0.80200
C401        C  0.57683734  0.14425007  0.28811642     0.93700
C402        C  0.64528363  0.23766372  0.20242717     0.93500
Mg403      Mg  0.55390044  0.08342882  0.12014554     1.58000
O404        O  0.51598774  0.05538769  0.08559525    -0.80100
O405        O  0.59331689  0.10688870  0.15219829    -0.74300
O406        O  0.59379328  0.16435459  0.26912907    -0.80200
O407        O  0.60078945  0.24265672  0.10493704    -0.81900
O408        O  0.55338150  0.13139740  0.99593796    -0.80200
C409        C  0.60188388  0.12367785  0.17906509     0.88000
O410        O  0.56560380  0.11504704  0.07915187    -0.87300
O411        O  0.53536694  0.10103858  0.15299129    -0.87500
O412        O  0.51037621  0.10677863  0.11186891    -0.74500
Mg413      Mg  0.61178518  0.17389379  0.20838509     1.58000
O414        O  0.56080418  0.12212821  0.27265706    -0.81900
H415        H  0.64328383  0.19678288  0.09590819    -0.05600
O416        O  0.55470395  0.16055995  0.07470781    -0.87200
H417        H  0.52098410  0.16155425  0.08070536    -0.05400
H418        H  0.59573757  0.11106588  0.05959801    -0.05600
C419        C  0.54128157  0.16913889  0.08991573     0.87900
C420        C  0.62875268  0.19177025  0.11825815     0.88500
C421        C  0.58764454  0.12400966  0.06390205     0.88600
H422        H  0.49865478  0.09342349  0.16568375    -0.05600
O423        O  0.54306163  0.14735793  0.20923261    -0.74600
Mg424      Mg  0.53408197  0.12007807  0.05589042     1.58000
H425        H  0.55125293  0.18542185  0.20520752    -0.05600
C426        C  0.59616301  0.24202556  0.06970351     0.93600
O427        O  0.58203511  0.17487866  0.99248944    -0.81800
C428        C  0.56834137  0.15231990  0.97691667     0.93600
O429        O  0.63883594  0.21770404  0.22384954    -0.81800
Mg430      Mg  0.54818626  0.11099577  0.21113540     1.58200
O431        O  0.59098593  0.22207201  0.04890172    -0.80200
O432        O  0.54245373  0.05055349  0.16435978    -0.81900
O433        O  0.60917559  0.19330460  0.61086010    -0.87400
C434        C  0.55985647  0.17268110  0.70117109     0.88600
Mg435      Mg  0.59512451  0.18505912  0.55371789     1.58100
O436        O  0.58975812  0.13388682  0.69149292    -0.87200
O437        O  0.63387597  0.18502390  0.64947556    -0.74500
C438        C  0.50613189  0.05666412  0.55390688     0.93600
O439        O  0.55159944  0.18729653  0.61753523    -0.74300
O440        O  0.51187141  0.07820190  0.53715302    -0.81800
Mg441      Mg  0.59267731  0.21123629  0.64629103     1.58000
C442        C  0.54490438  0.05218031  0.70058994     0.93600
O443        O  0.63327232  0.23767533  0.67372451    -0.80100
H444        H  0.62254841  0.13095290  0.68945540    -0.05400
C445        C  0.51490460  0.10060438  0.64511945     0.88500
O446        O  0.60149629  0.14891829  0.55337143    -0.74600
O447        O  0.58204709  0.18076025  0.68687004    -0.87400
O448        O  0.55010134  0.07294994  0.71932635    -0.80200
C449        C  0.57853149  0.14514512  0.78789921     0.93700
C450        C  0.64721700  0.23836804  0.70199056     0.93500
Mg451      Mg  0.55443812  0.08401189  0.62011558     1.58000
O452        O  0.51642230  0.05604066  0.58565997    -0.80100
O453        O  0.59400422  0.10730973  0.65183640    -0.74300
O454        O  0.59550597  0.16519139  0.76882240    -0.80200
O455        O  0.60226009  0.24394200  0.60500863    -0.81900
O456        O  0.55329812  0.13212471  0.49641175    -0.80200
C457        C  0.60275760  0.12416533  0.67860313     0.88000
O458        O  0.56605042  0.11576149  0.57918858    -0.87300
O459        O  0.53614192  0.10172441  0.65327223    -0.87500
O460        O  0.51100027  0.10765253  0.61269059    -0.74500
Mg461      Mg  0.61314772  0.17456003  0.70781960     1.58000
O462        O  0.56231634  0.12306468  0.77251451    -0.81900
H463        H  0.64401756  0.19726715  0.59492568    -0.05600
O464        O  0.55531627  0.16149988  0.57537191    -0.87200
H465        H  0.52180848  0.16283131  0.58192806    -0.05400
H466        H  0.59607258  0.11181952  0.55902979    -0.05600
C467        C  0.54216068  0.17031249  0.59078034     0.87900
C468        C  0.62965388  0.19241724  0.61747448     0.88500
C469        C  0.58798197  0.12474196  0.56357251     0.88600
H470        H  0.49953068  0.09417012  0.66651187    -0.05600
O471        O  0.54456443  0.14841458  0.70925498    -0.74600
Mg472      Mg  0.53442678  0.12092949  0.55653795     1.58000
H473        H  0.55277547  0.18648530  0.70525219    -0.05600
C474        C  0.59708803  0.24319536  0.56993370     0.93600
O475        O  0.58176165  0.17561744  0.49249021    -0.81800
C476        C  0.56800349  0.15298401  0.47713896     0.93600
O477        O  0.64058163  0.21828907  0.72323007    -0.81800
Mg478      Mg  0.54932406  0.11180933  0.71120200     1.58200
O479        O  0.59143623  0.22308546  0.54916092    -0.80200
O480        O  0.54296733  0.05105067  0.66443674    -0.81900
O481        O  0.39204670  0.80588725  0.36372470    -0.87400
C482        C  0.44208040  0.82692282  0.45320190     0.88600
Mg483      Mg  0.40530868  0.81419789  0.30627022     1.58100
O484        O  0.41133938  0.86494412  0.44379919    -0.87200
O485        O  0.36705228  0.81333028  0.40285142    -0.74500
C486        C  0.49366603  0.94265432  0.30466426     0.93600
O487        O  0.45002980  0.81282603  0.36897452    -0.74300
O488        O  0.48786598  0.92110246  0.28794527    -0.81800
Mg489      Mg  0.40933418  0.78837803  0.39847769     1.58000
C490        C  0.45545368  0.94663869  0.45214728     0.93600
O491        O  0.36920868  0.76139081  0.42662820    -0.80100
H492        H  0.37836898  0.86757338  0.44220464    -0.05400
C493        C  0.48600565  0.89898046  0.39599960     0.88500
O494        O  0.39842310  0.84996722  0.30651809    -0.74600
O495        O  0.41977418  0.81862444  0.43919879    -0.87400
O496        O  0.45050906  0.92595043  0.47089238    -0.80200
C497        C  0.42332326  0.85424818  0.53997119     0.93700
C498        C  0.35522246  0.76031077  0.45506459     0.93500
Mg499      Mg  0.44595275  0.91503721  0.37191008     1.58000
O500        O  0.48364983  0.94329094  0.33668644    -0.80100
O501        O  0.40667212  0.89141005  0.40438910    -0.74300
O502        O  0.40641146  0.83405596  0.52113910    -0.80200
O503        O  0.39988300  0.75592685  0.35705482    -0.81900
O504        O  0.44636730  0.86704631  0.24806409    -0.80200
C505        C  0.39813444  0.87450387  0.43112655     0.88000
O506        O  0.43420935  0.88340994  0.33107646    -0.87300
O507        O  0.46470075  0.89756232  0.40461361    -0.87500
O508        O  0.48978226  0.89209362  0.36337174    -0.74500
Mg509      Mg  0.38838582  0.82424286  0.46059484     1.58000
O510        O  0.43936608  0.87631984  0.52437376    -0.81900
H511        H  0.35667120  0.80086069  0.34845799    -0.05600
O512        O  0.44537586  0.83809111  0.32686649    -0.87200
H513        H  0.47926226  0.83740521  0.33271936    -0.05400
H514        H  0.40372086  0.88701091  0.31213922    -0.05600
C515        C  0.45894903  0.82965660  0.34198856     0.87900
C516        C  0.37128333  0.80611831  0.37074080     0.88500
C517        C  0.41201010  0.87421885  0.31625603     0.88600
H518        H  0.50156980  0.90558253  0.41710701    -0.05600
O519        O  0.45729012  0.85125916  0.46092494    -0.74600
Mg520      Mg  0.46579070  0.87851187  0.30770286     1.58000
H521        H  0.44934064  0.81326049  0.45725316    -0.05600
C522        C  0.40448291  0.75668167  0.32179288     0.93600
O523        O  0.41776999  0.82356735  0.24475346    -0.81800
C524        C  0.43143870  0.84611141  0.22912167     0.93600
O525        O  0.36150769  0.78031355  0.47634116    -0.81800
Mg526      Mg  0.45192892  0.88748678  0.46282490     1.58200
O527        O  0.40947002  0.77661919  0.30108176    -0.80200
O528        O  0.45745036  0.94786497  0.41603141    -0.81900
O529        O  0.39144114  0.80536108  0.86373533    -0.87400
C530        C  0.44173293  0.82612388  0.95286775     0.88600
Mg531      Mg  0.40469352  0.81371742  0.80622309     1.58100
O532        O  0.41136915  0.86450196  0.94361735    -0.87200
O533        O  0.36665826  0.81293856  0.90307375    -0.74500
C534        C  0.49385533  0.94226421  0.80415847     0.93600
O535        O  0.44922163  0.81180409  0.86847934    -0.74300
O536        O  0.48802956  0.92065046  0.78755089    -0.81800
Mg537      Mg  0.40858993  0.78760449  0.89828200     1.58000
C538        C  0.45571780  0.94608748  0.95196160     0.93600
O539        O  0.36859343  0.76079253  0.92697392    -0.80100
H540        H  0.37852489  0.86735236  0.94194225    -0.05400
C541        C  0.48603047  0.89824946  0.89564870     0.88500
O542        O  0.39822330  0.84973868  0.80665400    -0.74600
O543        O  0.41939068  0.81792423  0.93904463    -0.87400
O544        O  0.45072712  0.92535605  0.97061314    -0.80200
C545        C  0.42342099  0.85383405  0.03986967     0.93700
C546        C  0.35485797  0.75987248  0.95564778     0.93500
Mg547      Mg  0.44621818  0.91467812  0.87168200     1.58000
O548        O  0.48391091  0.94293057  0.83624433    -0.80100
O549        O  0.40694340  0.89113714  0.90422823    -0.74300
O550        O  0.40638541  0.83365021  0.02115012    -0.80200
O551        O  0.39868278  0.75504384  0.85675333    -0.81900
O552        O  0.44613087  0.86652256  0.74794649    -0.80200
C553        C  0.39828540  0.87418917  0.93091561     0.88000
O554        O  0.43427578  0.88309511  0.83082568    -0.87300
O555        O  0.46478375  0.89695023  0.90428194    -0.87500
O556        O  0.48974464  0.89134347  0.86300236    -0.74500
Mg557      Mg  0.38822834  0.82384969  0.96065760     1.58000
O558        O  0.43954099  0.87581347  0.02412686    -0.81900
H559        H  0.35607344  0.80046898  0.84871776    -0.05600
O560        O  0.44487990  0.83741021  0.82664350    -0.87200
H561        H  0.47854816  0.83628060  0.83226353    -0.05400
H562        H  0.40386697  0.88691910  0.81214515    -0.05600
C563        C  0.45827866  0.82871945  0.84160540     0.87900
C564        C  0.37074663  0.80568645  0.87090211     0.88500
C565        C  0.41202715  0.87401050  0.81620179     0.88600
H566        H  0.50158856  0.90475667  0.91675202    -0.05600
O567        O  0.45708615  0.85045278  0.96050439    -0.74600
Mg568      Mg  0.46565990  0.87791595  0.80741956     1.58000
H569        H  0.44889257  0.81237296  0.95683334    -0.05600
C570        C  0.40322055  0.75579063  0.82146393     0.93600
O571        O  0.41711572  0.82312733  0.74467682    -0.81800
C572        C  0.43098334  0.84564656  0.72904691     0.93600
O573        O  0.36127296  0.78000929  0.97668708    -0.81800
Mg574      Mg  0.45200618  0.88685950  0.96251204     1.58200
O575        O  0.40838319  0.77582517  0.80083786    -0.80200
O576        O  0.45784116  0.94743602  0.91586736    -0.81900
C577        C  0.42444935  0.85204970  0.58054134    -0.17600
C578        C  0.42591101  0.85056814  0.61458893     0.06500
C579        C  0.42787698  0.84900533  0.65446170     0.08300
C580        C  0.42947257  0.84759905  0.68849701    -0.18500
C581        C  0.42459700  0.85175849  0.08047511    -0.17600
C582        C  0.42614631  0.85048146  0.11455469     0.06500
C583        C  0.42824359  0.84920501  0.15447127     0.08300
C584        C  0.42992634  0.84799625  0.18853738    -0.18500
C585        C  0.53957797  0.02880206  0.72177078    -0.17600
C586        C  0.53280430  0.00944642  0.74155554     0.06500
C587        C  0.52227615  0.98670286  0.76533884     0.08300
C588        C  0.51086108  0.96683594  0.78453894    -0.18500
C589        C  0.48882463  0.03207136  0.53481126    -0.17600
C590        C  0.47728557  0.01206790  0.51605962     0.06500
C591        C  0.46686794  0.98920567  0.49273899     0.08300
C592        C  0.46036375  0.96983811  0.47322715    -0.18500
C593        C  0.57005446  0.15044316  0.93633585    -0.17600
C594        C  0.57231697  0.14950944  0.90232257     0.06500
C595        C  0.57525939  0.14861280  0.86249367     0.08300
C596        C  0.57733569  0.14747950  0.82847548    -0.18500
C597        C  0.57551866  0.14660859  0.32866958    -0.17600
C598        C  0.57363876  0.14806632  0.36266960     0.06500
C599        C  0.57114834  0.14952476  0.40250239     0.08300
C600        C  0.56931895  0.15088874  0.43653109    -0.18500
C601        C  0.51078421  0.96718210  0.28522191    -0.17600
C602        C  0.52229511  0.98690945  0.26586435     0.06500
C603        C  0.53279007  0.00940076  0.24173746     0.08300
C604        C  0.53939831  0.02856704  0.22170345    -0.18500
C605        C  0.48852016  0.03127322  0.03476420    -0.17600
C606        C  0.47702271  0.01125709  0.01607116     0.06500
C607        C  0.46677240  0.98845157  0.99271738     0.08300
C608        C  0.46046238  0.96917399  0.97313009    -0.18500
C609        C  0.67189212  0.26256512  0.70857221    -0.17600
C610        C  0.69297001  0.28304007  0.70974917     0.06500
C611        C  0.71767165  0.30707490  0.70949490     0.08300
C612        C  0.73860617  0.32767610  0.71110106    -0.18500
C613        C  0.73469272  0.32848261  0.21574688    -0.17600
C614        C  0.71440663  0.30760022  0.21117978     0.06500
C615        C  0.69030182  0.28301567  0.21026254     0.08300
C616        C  0.66964826  0.26213446  0.20899281    -0.18500
C617        C  0.85375369  0.43119820  0.48681901    -0.17600
C618        C  0.85316434  0.42810149  0.52082055     0.06500
C619        C  0.85359172  0.42474630  0.56060650     0.08300
C620        C  0.85472447  0.42257242  0.59459529    -0.18500
C621        C  0.84872021  0.41890820  0.09454788    -0.17600
C622        C  0.84918482  0.42210493  0.06050179     0.06500
C623        C  0.84871021  0.42566301  0.02065085     0.08300
C624        C  0.84761427  0.42818015  0.98666112    -0.18500
C625        C  0.26470733  0.66989696  0.46089429    -0.17600
C626        C  0.28565121  0.69056760  0.46044113     0.06500
C627        C  0.31009805  0.71488625  0.46203803     0.08300
C628        C  0.33087727  0.73572397  0.46161531    -0.18500
C629        C  0.03345894  0.49194476  0.63902781    -0.17600
C630        C  0.01400519  0.47999153  0.65884530     0.06500
C631        C  0.99179901  0.46885497  0.68359725     0.08300
C632        C  0.97264245  0.46168231  0.70393955    -0.18500
C633        C  0.02987422  0.54233654  0.44986894    -0.17600
C634        C  0.01135082  0.53570850  0.42829435     0.06500
C635        C  0.99007601  0.52512962  0.40170093     0.08300
C636        C  0.97153349  0.51330609  0.38013300    -0.18500
C637        C  0.26495445  0.66905635  0.96373313    -0.17600
C638        C  0.28582986  0.68978236  0.96310563     0.06500
C639        C  0.31010922  0.71427299  0.96404531     0.08300
C640        C  0.33071394  0.73524940  0.96291048    -0.18500
C641        C  0.96838114  0.45791926  0.19371962    -0.17600
C642        C  0.98845140  0.46559424  0.17537540     0.06500
C643        C  0.01168523  0.47714026  0.15282912     0.08300
C644        C  0.03186082  0.48946433  0.13467720    -0.18500
C645        C  0.15320525  0.57242807  0.73497134    -0.17600
C646        C  0.15176144  0.57435313  0.76898443     0.06500
C647        C  0.15008128  0.57671860  0.80883205     0.08300
C648        C  0.14843482  0.57838091  0.84285752    -0.18500
C649        C  0.14723634  0.57634521  0.34287119    -0.17600
C650        C  0.14837253  0.57400808  0.30890407     0.06500
C651        C  0.14953815  0.57098396  0.26912841     0.08300
C652        C  0.15081061  0.56881356  0.23514595    -0.18500
C653        C  0.02981935  0.54303817  0.95081221    -0.17600
C654        C  0.01019106  0.53602593  0.93151827     0.06500
C655        C  0.98709569  0.52469414  0.90842713     0.08300
C656        C  0.96705277  0.51236512  0.88983701    -0.18500
C657        C  0.40461051  0.67007462  0.78037319    -0.17600
C658        C  0.40396729  0.68979750  0.78882165     0.06500
C659        C  0.40334793  0.71325106  0.79664220     0.08300
C660        C  0.40309213  0.73314483  0.80526634    -0.18500
C661        C  0.33248515  0.59496473  0.62433095    -0.17600
C662        C  0.31191882  0.59531657  0.62215364     0.06500
C663        C  0.28777683  0.59568780  0.62008661     0.08300
C664        C  0.26740699  0.59599867  0.61473476    -0.18500
C665        C  0.40450476  0.73410961  0.30569276    -0.17600
C666        C  0.40459972  0.71413091  0.29717766     0.06500
C667        C  0.40472044  0.69042730  0.28949510     0.08300
C668        C  0.40480875  0.67042415  0.28110376    -0.18500
C669        C  0.33179783  0.59467566  0.12537325    -0.17600
C670        C  0.31094765  0.59444128  0.12359504     0.06500
C671        C  0.28646984  0.59407516  0.12183664     0.08300
C672        C  0.26588453  0.59389728  0.11645679    -0.18500
C673        C  0.42561702  0.57276135  0.00654265    -0.17600
C674        C  0.42735285  0.57588453  0.97249324     0.06500
C675        C  0.42965890  0.57950348  0.93258488     0.08300
C676        C  0.43143184  0.58244965  0.89850525    -0.18500
C677        C  0.43020029  0.58178687  0.39881269    -0.17600
C678        C  0.42859020  0.57860506  0.43281707     0.06500
C679        C  0.42661698  0.57473258  0.47262670     0.08300
C680        C  0.42516790  0.57149707  0.50661824    -0.18500
C681        C  0.59483412  0.32791784  0.02941870    -0.17600
C682        C  0.59539963  0.30814755  0.03781245     0.06500
C683        C  0.59597420  0.28464726  0.04541776     0.08300
C684        C  0.59622949  0.26471483  0.05379214    -0.18500
C685        C  0.73226828  0.40071249  0.86424427    -0.17600
C686        C  0.71170353  0.40077615  0.86905433     0.06500
C687        C  0.68750666  0.40112227  0.87070127     0.08300
C688        C  0.66700758  0.40165359  0.87268687    -0.18500
C689        C  0.54103525  0.51028379  0.86314106    -0.17600
C690        C  0.53436672  0.52301027  0.84359902     0.06500
C691        C  0.52367244  0.53515549  0.82017120     0.08300
C692        C  0.51197846  0.54340164  0.80130361    -0.18500
C693        C  0.49083531  0.45786671  0.05135353    -0.17600
C694        C  0.47933535  0.46623221  0.07048783     0.06500
C695        C  0.46853783  0.47818291  0.09420705     0.08300
C696        C  0.46152193  0.49056363  0.11394165    -0.18500
C697        C  0.59769049  0.33015439  0.52936320    -0.17600
C698        C  0.59754888  0.31002700  0.53789726     0.06500
C699        C  0.59734565  0.28612590  0.54571430     0.08300
C700        C  0.59720818  0.26598421  0.55415053    -0.18500
C701        C  0.67068772  0.40598784  0.37195365    -0.17600
C702        C  0.69143813  0.40595374  0.37007360     0.06500
C703        C  0.71590078  0.40611505  0.36987189     0.08300
C704        C  0.73683258  0.40642893  0.36830125    -0.18500
C705        C  0.57522964  0.42717691  0.75507216    -0.17600
C706        C  0.57402411  0.42434744  0.72098517     0.06500
C707        C  0.57246844  0.42097425  0.68104886     0.08300
C708        C  0.57118182  0.41811432  0.64696722    -0.18500
C709        C  0.57653893  0.42788316  0.25496175    -0.17600
C710        C  0.57481086  0.42464319  0.22095706     0.06500
C711        C  0.57241116  0.42072324  0.18114303     0.08300
C712        C  0.57044926  0.41745226  0.14714938    -0.18500
C713        C  0.53938466  0.50893400  0.36268409    -0.17600
C714        C  0.53257747  0.52166127  0.34341084     0.06500
C715        C  0.52196265  0.53406920  0.32039117     0.08300
C716        C  0.51045327  0.54263965  0.30178660    -0.18500
C717        C  0.46138228  0.48937371  0.61394003    -0.17600
C718        C  0.46808771  0.47673876  0.59415675     0.06500
C719        C  0.47859581  0.46453889  0.57031409     0.08300
C720        C  0.49002816  0.45614584  0.55104379    -0.18500
loop_ 
_geom_bond_atom_site_label_1 
_geom_bond_atom_site_label_2 
_geom_bond_distance 
_geom_bond_site_symmetry_2 
_ccdc_geom_bond_type 
O1           Mg3   2.133       .  S
O1           Mg9   2.139       .  S
O1           C36   1.238       .  S
C2           O15   1.236       .  S
C2           O39   1.269       .  A
C2           H41   1.081       .  S
Mg3          O32   2.154       .  S
Mg3          O47   2.335       .  S
Mg3          O43   2.265       .  S
Mg3          O14   2.313       .  S
O4          Mg46   2.152       .  S
O4          Mg29   2.141       .  S
O4           C25   1.236       .  S
O5           C36   1.272       .  A
O5          Mg29   2.299       .  S
C6            O8   1.271       .  A
C6           O20   1.277       .  A
C6          C720   1.443       .  S
O7           C35   1.273       .  A
O7           Mg9   2.307       .  S
O8          Mg40   2.265       .  S
Mg9          O15   2.113       .  S
Mg9          O23   2.233       .  S
Mg9          O11   2.288       .  S
C10          O48   1.275       .  A
C10          O16   1.274       .  A
C10         C713   1.440       .  S
O11          C18   1.271       .  A
H12          C25   1.081       .  S
C13          O27   1.236       .  S
C13          O28   1.271       .  A
C13          H38   1.081       .  S
O14          C37   1.273       .  A
O15         Mg29   2.144       .  S
O16         Mg46   2.303       .  S
C17          O30   1.273       .  A
C17          O22   1.277       .  A
C17         C709   1.438       .  S
C18          O45   1.274       .  A
C18         C701   1.440       .  S
Mg19         O26   2.162       .  S
Mg19         O27   2.160       .  S
Mg19         O20   2.332       .  S
Mg19         O21   2.293       .  S
Mg19         O48   2.288       .  S
O21          C25   1.269       .  A
O22         Mg29   2.316       .  S
O23          C42   1.266       .  A
O24          C44   1.274       .  A
O24         Mg40   2.314       .  S
O26         Mg40   2.157       .  S
O26          C37   1.237       .  S
O27         Mg46   2.157       .  S
O28         Mg40   2.302       .  S
Mg29         O45   2.295       .  S
O30         Mg46   2.275       .  S
H31          C36   1.081       .  S
O32         Mg40   2.151       .  S
O32          C35   1.239       .  S
H33          C35   1.081       .  S
H34          C37   1.081       .  S
O39         Mg46   2.285       .  S
C42          O47   1.277       .  A
C42         C697   1.436       .  S
O43          C44   1.270       .  A
C44         C708   1.439       .  S
O49         Mg51   2.131   1_556  S
O49         Mg57   2.139       .  S
O49          C84   1.238       .  S
C50          O63   1.236       .  S
C50          O87   1.269       .  A
C50          H89   1.081       .  S
Mg51         O80   2.155       .  S
Mg51         O95   2.333       .  S
Mg51         O91   2.261       .  S
Mg51         O62   2.311       .  S
O52         Mg94   2.152       .  S
O52         Mg77   2.140       .  S
O52          C73   1.235       .  S
O53          C84   1.272       .  A
O53         Mg77   2.298       .  S
C54          O56   1.270       .  A
C54          O68   1.277   1_554  A
C54         C693   1.442       .  S
O55          C83   1.273       .  A
O55         Mg57   2.307       .  S
O56         Mg88   2.263       .  S
Mg57         O63   2.113       .  S
Mg57         O71   2.227       .  S
Mg57         O59   2.284       .  S
C58          O96   1.275       .  A
C58          O64   1.274       .  A
C58         C689   1.440       .  S
O59          C66   1.270       .  A
H60          C73   1.081       .  S
C61          O75   1.237       .  S
C61          O76   1.271       .  A
C61          H86   1.081       .  S
O62          C85   1.272       .  A
O63         Mg77   2.146       .  S
O64         Mg94   2.302       .  S
C65          O78   1.274       .  A
C65          O70   1.277       .  A
C65         C705   1.439       .  S
C66          O93   1.275       .  A
C66         C688   1.440       .  S
Mg67         O74   2.162   1_556  S
Mg67         O75   2.160       .  S
Mg67         O68   2.331       .  S
Mg67         O69   2.293       .  S
Mg67         O96   2.290       .  S
O69          C73   1.269       .  A
O70         Mg77   2.315       .  S
O71          C90   1.265   1_556  A
O72          C92   1.275       .  A
O72         Mg88   2.317       .  S
O74         Mg88   2.157       .  S
O74          C85   1.237       .  S
O75         Mg94   2.158       .  S
O76         Mg88   2.303   1_556  S
Mg77         O93   2.297       .  S
O78         Mg94   2.278       .  S
H79          C84   1.081       .  S
O80         Mg88   2.151       .  S
O80          C83   1.239   1_554  S
H81          C83   1.081   1_554  S
H82          C85   1.081       .  S
O87         Mg94   2.284       .  S
C90          O95   1.276       .  A
C90         C681   1.434       .  S
O91          C92   1.270       .  A
C92         C712   1.438       .  S
O97         Mg99   2.130       .  S
O97        Mg105   2.138       .  S
O97         C132   1.239       .  S
C98         O111   1.236       .  S
C98         O135   1.268       .  A
C98         H137   1.081       .  S
Mg99        O128   2.152       .  S
Mg99        O143   2.330       .  S
Mg99        O139   2.261       .  S
Mg99        O110   2.312       .  S
O100       Mg142   2.151       .  S
O100       Mg125   2.134       .  S
O100        C121   1.235       .  S
O101        C132   1.272       .  A
O101       Mg125   2.301       .  S
C102        O104   1.270       .  A
C102        O116   1.276       .  A
C102        C716   1.439       .  S
O103        C131   1.273       .  A
O103       Mg105   2.306       .  S
O104       Mg136   2.260       .  S
Mg105       O111   2.112       .  S
Mg105       O119   2.227       .  S
Mg105       O107   2.278       .  S
C106        O144   1.275       .  A
C106        O112   1.274       .  A
C106        C696   1.442       .  S
O107        C114   1.270       .  A
H108        C121   1.081       .  S
C109        O123   1.236       .  S
C109        O124   1.271       .  A
C109        H134   1.081       .  S
O110        C133   1.273       .  A
O111       Mg125   2.144       .  S
O112       Mg142   2.302       .  S
C113        O126   1.274       .  A
C113        O118   1.277       .  A
C113        C673   1.439       .  S
C114        O141   1.274       .  A
C114        C669   1.436       .  S
Mg115       O122   2.166       .  S
Mg115       O123   2.159       .  S
Mg115       O116   2.323       .  S
Mg115       O117   2.291       .  S
Mg115       O144   2.294       .  S
O117        C121   1.269       .  A
O118       Mg125   2.320       .  S
O119        C138   1.265       .  A
O120        C140   1.274       .  A
O120       Mg136   2.316       .  S
O122       Mg136   2.158       .  S
O122        C133   1.237       .  S
O123       Mg142   2.155       .  S
O124       Mg136   2.301       .  S
Mg125       O141   2.288       .  S
O126       Mg142   2.275       .  S
H127        C132   1.081       .  S
O128       Mg136   2.147       .  S
O128        C131   1.239       .  S
H129        C131   1.081       .  S
H130        C133   1.081       .  S
O135       Mg142   2.284       .  S
C138        O143   1.276       .  A
C138        C668   1.433       .  S
O139        C140   1.270       .  A
C140        C677   1.437       .  S
O145       Mg147   2.130       .  S
O145       Mg153   2.140       .  S
O145        C180   1.238       .  S
C146        O159   1.236       .  S
C146        O183   1.269       .  A
C146        H185   1.081       .  S
Mg147       O176   2.153       .  S
Mg147       O191   2.334       .  S
Mg147       O187   2.262       .  S
Mg147       O158   2.313       .  S
O148       Mg190   2.152       .  S
O148       Mg173   2.139       .  S
O148        C169   1.235       .  S
O149        C180   1.272       .  A
O149       Mg173   2.298       .  S
C150        O152   1.270       .  A
C150        O164   1.277       .  A
C150        C692   1.440       .  S
O151        C179   1.273       .  A
O151       Mg153   2.305       .  S
O152       Mg184   2.260       .  S
Mg153       O159   2.114       .  S
Mg153       O167   2.228       .  S
Mg153       O155   2.281       .  S
C154        O192   1.276       .  A
C154        O160   1.274       .  A
C154        C717   1.443       .  S
O155        C162   1.270       .  A
H156        C169   1.081       .  S
C157        O171   1.237       .  S
C157        O172   1.271       .  A
C157        H182   1.081       .  S
O158        C181   1.273       .  A
O159       Mg173   2.145       .  S
O160       Mg190   2.306       .  S
C161        O174   1.273       .  A
C161        O166   1.276       .  A
C161        C680   1.437       .  S
C162        O189   1.274       .  A
C162        C661   1.438       .  S
Mg163       O170   2.168       .  S
Mg163       O171   2.158       .  S
Mg163       O164   2.326       .  S
Mg163       O165   2.292       .  S
Mg163       O192   2.298       .  S
O165        C169   1.269       .  A
O166       Mg173   2.313       .  S
O167        C186   1.265       .  A
O168        C188   1.275       .  A
O168       Mg184   2.321       .  S
O170       Mg184   2.159       .  S
O170        C181   1.237       .  S
O171       Mg190   2.154       .  S
O172       Mg184   2.303       .  S
Mg173       O189   2.293       .  S
O174       Mg190   2.274       .  S
H175        C180   1.081       .  S
O176       Mg184   2.149       .  S
O176        C179   1.239       .  S
H177        C179   1.081       .  S
H178        C181   1.081       .  S
O183       Mg190   2.285       .  S
C186        O191   1.276       .  A
C186        C657   1.434       .  S
O187        C188   1.270       .  A
C188        C676   1.439       .  S
O193       Mg195   2.133       .  S
O193       Mg201   2.139       .  S
O193        C228   1.239       .  S
C194        O207   1.236       .  S
C194        O231   1.268       .  A
C194        H233   1.081       .  S
Mg195       O224   2.151       .  S
Mg195       O239   2.338       .  S
Mg195       O235   2.264       .  S
Mg195       O206   2.313       .  S
O196       Mg238   2.151       .  S
O196       Mg221   2.137       .  S
O196        C217   1.236       .  S
O197        C228   1.272       .  A
O197       Mg221   2.301   1_554  S
C198        O200   1.269       .  A
C198        O212   1.276       .  A
C198        C644   1.435       .  S
O199        C227   1.273       .  A
O199       Mg201   2.304       .  S
O200       Mg232   2.250       .  S
Mg201       O207   2.114   1_554  S
Mg201       O215   2.223       .  S
Mg201       O203   2.283   1_554  S
C202        O240   1.275   1_556  A
C202        O208   1.274       .  A
C202        C653   1.441       .  S
O203        C210   1.270       .  A
H204        C217   1.081       .  S
C205        O219   1.237       .  S
C205        O220   1.272       .  A
C205        H230   1.081       .  S
O206        C229   1.273       .  A
O207       Mg221   2.143       .  S
O208       Mg238   2.304       .  S
C209        O222   1.274       .  A
C209        O214   1.277       .  A
C209        C648   1.440       .  S
C210        O237   1.274       .  A
C210        C637   1.440       .  S
Mg211       O218   2.164       .  S
Mg211       O219   2.156       .  S
Mg211       O212   2.319       .  S
Mg211       O213   2.292       .  S
Mg211       O240   2.290       .  S
O213        C217   1.269   1_554  A
O214       Mg221   2.322       .  S
O215        C234   1.265       .  A
O216        C236   1.275       .  A
O216       Mg232   2.322       .  S
O218       Mg232   2.157       .  S
O218        C229   1.237       .  S
O219       Mg238   2.154   1_554  S
O220       Mg232   2.304       .  S
Mg221       O237   2.295       .  S
O222       Mg238   2.275       .  S
H223        C228   1.081       .  S
O224       Mg232   2.141       .  S
O224        C227   1.239       .  S
H225        C227   1.081       .  S
H226        C229   1.081       .  S
O231       Mg238   2.284       .  S
C234        O239   1.277       .  A
C234        C672   1.434       .  S
O235        C236   1.271       .  A
C236        C652   1.440       .  S
O241       Mg243   2.132       .  S
O241       Mg249   2.138       .  S
O241        C276   1.239       .  S
C242        O255   1.236       .  S
C242        O279   1.268       .  A
C242        H281   1.081       .  S
Mg243       O272   2.150       .  S
Mg243       O287   2.346       .  S
Mg243       O283   2.267       .  S
Mg243       O254   2.318       .  S
O244       Mg286   2.151       .  S
O244       Mg269   2.139       .  S
O244        C265   1.236       .  S
O245        C276   1.273       .  A
O245       Mg269   2.301       .  S
C246        O248   1.269       .  A
C246        O260   1.277       .  A
C246        C629   1.439       .  S
O247        C275   1.273       .  A
O247       Mg249   2.306       .  S
O248       Mg280   2.252       .  S
Mg249       O255   2.112       .  S
Mg249       O263   2.226       .  S
Mg249       O251   2.281       .  S
C250        O288   1.277       .  A
C250        O256   1.273       .  A
C250        C633   1.444       .  S
O251        C258   1.270       .  A
H252        C265   1.081       .  S
C253        O267   1.237       .  S
C253        O268   1.271       .  A
C253        H278   1.081       .  S
O254        C277   1.274       .  A
O255       Mg269   2.144       .  S
O256       Mg286   2.298       .  S
C257        O270   1.273       .  A
C257        O262   1.278       .  A
C257        C649   1.439       .  S
C258        O285   1.275       .  A
C258        C625   1.440       .  S
Mg259       O266   2.173       .  S
Mg259       O267   2.157       .  S
Mg259       O260   2.331       .  S
Mg259       O261   2.293       .  S
Mg259       O288   2.309       .  S
O261        C265   1.269       .  A
O262       Mg269   2.323       .  S
O263        C282   1.265       .  A
O264        C284   1.275       .  A
O264       Mg280   2.321       .  S
O266       Mg280   2.159       .  S
O266        C277   1.238       .  S
O267       Mg286   2.153       .  S
O268       Mg280   2.301       .  S
Mg269       O285   2.299       .  S
O270       Mg286   2.272       .  S
H271        C276   1.081       .  S
O272       Mg280   2.146       .  S
O272        C275   1.239       .  S
H273        C275   1.081       .  S
H274        C277   1.081       .  S
O279       Mg286   2.282       .  S
C282        O287   1.278       .  A
C282        C664   1.437       .  S
O283        C284   1.271       .  A
C284        C645   1.440       .  S
O289       Mg291   2.134       .  S
O289       Mg297   2.137       .  S
O289        C324   1.239       .  S
C290        O303   1.236       .  S
C290        O327   1.268       .  A
C290        H329   1.081       .  S
Mg291       O320   2.147       .  S
Mg291       O335   2.346       .  S
Mg291       O331   2.268       .  S
Mg291       O302   2.318       .  S
O292       Mg334   2.151       .  S
O292       Mg317   2.136       .  S
O292        C313   1.236       .  S
O293        C324   1.273       .  A
O293       Mg317   2.302       .  S
C294        O296   1.269       .  A
C294        O308   1.276       .  A
C294        C641   1.435       .  S
O295        C323   1.273       .  A
O295       Mg297   2.306       .  S
O296       Mg328   2.249       .  S
Mg297       O303   2.111       .  S
Mg297       O311   2.224       .  S
Mg297       O299   2.284       .  S
C298        O336   1.277       .  A
C298        O304   1.273       .  A
C298        C636   1.444       .  S
O299        C306   1.270       .  A
H300        C313   1.081       .  S
C301        O315   1.237       .  S
C301        O316   1.271       .  A
C301        H326   1.081       .  S
O302        C325   1.274       .  A
O303       Mg317   2.142       .  S
O304       Mg334   2.296       .  S
C305        O318   1.273       .  A
C305        O310   1.277       .  A
C305        C617   1.438       .  S
C306        O333   1.274       .  A
C306        C704   1.439       .  S
Mg307       O314   2.175       .  S
Mg307       O315   2.156       .  S
Mg307       O308   2.320       .  S
Mg307       O309   2.291       .  S
Mg307       O336   2.309       .  S
O309        C313   1.269       .  A
O310       Mg317   2.322       .  S
O311        C330   1.265       .  A
O312        C332   1.276       .  A
O312       Mg328   2.330       .  S
O314       Mg328   2.159       .  S
O314        C325   1.238       .  S
O315       Mg334   2.151       .  S
O316       Mg328   2.304       .  S
Mg317       O333   2.293       .  S
O318       Mg334   2.268       .  S
H319        C324   1.081       .  S
O320       Mg328   2.144       .  S
O320        C323   1.239       .  S
H321        C323   1.081       .  S
H322        C325   1.081       .  S
O327       Mg334   2.281       .  S
C330        O335   1.278       .  A
C330        C613   1.436       .  S
O331        C332   1.271       .  A
C332        C621   1.443       .  S
O337       Mg339   2.136       .  S
O337       Mg345   2.137       .  S
O337        C372   1.239       .  S
C338        O351   1.236       .  S
C338        O375   1.268       .  A
C338        H377   1.081       .  S
Mg339       O368   2.151       .  S
Mg339       O383   2.351       .  S
Mg339       O379   2.272       .  S
Mg339       O350   2.316       .  S
O340       Mg382   2.151       .  S
O340       Mg365   2.135       .  S
O340        C361   1.236       .  S
O341        C372   1.273       .  A
O341       Mg365   2.301       .  S
C342        O344   1.270       .  A
C342        O356   1.276       .  A
C342        C656   1.441       .  S
O343        C371   1.273       .  A
O343       Mg345   2.307       .  S
O344       Mg376   2.263       .  S
Mg345       O351   2.111       .  S
Mg345       O359   2.227       .  S
Mg345       O347   2.283       .  S
C346        O384   1.275       .  A
C346        O352   1.273       .  A
C346        C632   1.439       .  S
O347        C354   1.270       .  A
H348        C361   1.081       .  S
C349        O363   1.237       .  S
C349        O364   1.271       .  A
C349        H374   1.081       .  S
O350        C373   1.274       .  A
O351       Mg365   2.143       .  S
O352       Mg382   2.293       .  S
C353        O366   1.273       .  A
C353        O358   1.277       .  A
C353        C620   1.439       .  S
C354        O381   1.274       .  A
C354        C612   1.439       .  S
Mg355       O362   2.166       .  S
Mg355       O363   2.159       .  S
Mg355       O356   2.326       .  S
Mg355       O357   2.291       .  S
Mg355       O384   2.293       .  S
O357        C361   1.269       .  A
O358       Mg365   2.318       .  S
O359        C378   1.265       .  A
O360        C380   1.276       .  A
O360       Mg376   2.325       .  S
O362       Mg376   2.156       .  S
O362        C373   1.238       .  S
O363       Mg382   2.156       .  S
O364       Mg376   2.304       .  S
Mg365       O381   2.293       .  S
O366       Mg382   2.274       .  S
H367        C372   1.081       .  S
O368       Mg376   2.150       .  S
O368        C371   1.239       .  S
H369        C371   1.081       .  S
H370        C373   1.081       .  S
O375       Mg382   2.281       .  S
C378        O383   1.279       .  A
C378        C685   1.439       .  S
O379        C380   1.272       .  A
C380        C624   1.443       .  S
O385       Mg387   2.131       .  S
O385       Mg393   2.138       .  S
O385        C420   1.239       .  S
C386        O399   1.236       .  S
C386        O423   1.268       .  A
C386        H425   1.081       .  S
Mg387       O416   2.152       .  S
Mg387       O431   2.330       .  S
Mg387       O427   2.260   1_554  S
Mg387       O398   2.312       .  S
O388       Mg430   2.151       .  S
O388       Mg413   2.135       .  S
O388        C409   1.236       .  S
O389        C420   1.272       .  A
O389       Mg413   2.300       .  S
C390        O392   1.270       .  A
C390        O404   1.276       .  A
C390        C605   1.438       .  S
O391        C419   1.273       .  A
O391       Mg393   2.306       .  S
O392       Mg424   2.258       .  S
Mg393       O399   2.112       .  S
Mg393       O407   2.229       .  S
Mg393       O395   2.279       .  S
C394        O432   1.275       .  A
C394        O400   1.274       .  A
C394        C604   1.440       .  S
O395        C402   1.270       .  A
H396        C409   1.081       .  S
C397        O411   1.237       .  S
C397        O412   1.271       .  A
C397        H422   1.081       .  S
O398        C421   1.272       .  A
O399       Mg413   2.144       .  S
O400       Mg430   2.299       .  S
C401        O414   1.273       .  A
C401        O406   1.277       .  A
C401        C597   1.439       .  S
C402        O429   1.274       .  A
C402        C616   1.438       .  S
Mg403       O410   2.163       .  S
Mg403       O411   2.158       .  S
Mg403       O404   2.322       .  S
Mg403       O405   2.291       .  S
Mg403       O432   2.292       .  S
O405        C409   1.269       .  A
O406       Mg413   2.321       .  S
O407        C426   1.265       .  A
O408        C428   1.275       .  A
O408       Mg424   2.323   1_556  S
O410       Mg424   2.156       .  S
O410        C421   1.237       .  S
O411       Mg430   2.155       .  S
O412       Mg424   2.303       .  S
Mg413       O429   2.293       .  S
O414       Mg430   2.273       .  S
H415        C420   1.081       .  S
O416       Mg424   2.146       .  S
O416        C419   1.239       .  S
H417        C419   1.081       .  S
H418        C421   1.081       .  S
O423       Mg430   2.284       .  S
C426        O431   1.276       .  A
C426        C684   1.434       .  S
O427        C428   1.270       .  A
C428        C593   1.439       .  S
O433       Mg435   2.132       .  S
O433       Mg441   2.138       .  S
O433        C468   1.239       .  S
C434        O447   1.236       .  S
C434        O471   1.269       .  A
C434        H473   1.081       .  S
Mg435       O464   2.152       .  S
Mg435       O479   2.336       .  S
Mg435       O475   2.262       .  S
Mg435       O446   2.314       .  S
O436       Mg478   2.150       .  S
O436       Mg461   2.136       .  S
O436        C457   1.235       .  S
O437        C468   1.273       .  A
O437       Mg461   2.302       .  S
C438        O440   1.270       .  A
C438        O452   1.276       .  A
C438        C589   1.439       .  S
O439        C467   1.274       .  A
O439       Mg441   2.309       .  S
O440       Mg472   2.260       .  S
Mg441       O447   2.115       .  S
Mg441       O455   2.233       .  S
Mg441       O443   2.286       .  S
C442        O480   1.276       .  A
C442        O448   1.274       .  A
C442        C585   1.443       .  S
O443        C450   1.271       .  A
H444        C457   1.081       .  S
C445        O459   1.237       .  S
C445        O460   1.271       .  A
C445        H470   1.081       .  S
O446        C469   1.273       .  A
O447       Mg461   2.144       .  S
O448       Mg478   2.305       .  S
C449        O462   1.273       .  A
C449        O454   1.277       .  A
C449        C596   1.439       .  S
C450        O477   1.274       .  A
C450        C609   1.439       .  S
Mg451       O458   2.168       .  S
Mg451       O459   2.158       .  S
Mg451       O452   2.323       .  S
Mg451       O453   2.290       .  S
Mg451       O480   2.298       .  S
O453        C457   1.269       .  A
O454       Mg461   2.322       .  S
O455        C474   1.266       .  A
O456        C476   1.275       .  A
O456       Mg472   2.320       .  S
O458       Mg472   2.158       .  S
O458        C469   1.237       .  S
O459       Mg478   2.153       .  S
O460       Mg472   2.301       .  S
Mg461       O477   2.292       .  S
O462       Mg478   2.271       .  S
H463        C468   1.081       .  S
O464       Mg472   2.150       .  S
O464        C467   1.239       .  S
H465        C467   1.081       .  S
H466        C469   1.081       .  S
O471       Mg478   2.285       .  S
C474        O479   1.276       .  A
C474        C700   1.436       .  S
O475        C476   1.270       .  A
C476        C600   1.439       .  S
O481       Mg483   2.130       .  S
O481       Mg489   2.138       .  S
O481        C516   1.238       .  S
C482        O495   1.236       .  S
C482        O519   1.269       .  A
C482        H521   1.081       .  S
Mg483       O512   2.153       .  S
Mg483       O527   2.328       .  S
Mg483       O523   2.260       .  S
Mg483       O494   2.311       .  S
O484       Mg526   2.152       .  S
O484       Mg509   2.140       .  S
O484        C505   1.236       .  S
O485        C516   1.272       .  A
O485       Mg509   2.298       .  S
C486        O488   1.270       .  A
C486        O500   1.277       .  A
C486        C601   1.440       .  S
O487        C515   1.273       .  A
O487       Mg489   2.306       .  S
O488       Mg520   2.257       .  S
Mg489       O495   2.111       .  S
Mg489       O503   2.227       .  S
Mg489       O491   2.283       .  S
C490        O528   1.275       .  A
C490        O496   1.274       .  A
C490        C592   1.440       .  S
O491        C498   1.270       .  A
H492        C505   1.081       .  S
C493        O507   1.236       .  S
C493        O508   1.271       .  A
C493        H518   1.081       .  S
O494        C517   1.272       .  A
O495       Mg509   2.145       .  S
O496       Mg526   2.301       .  S
C497        O510   1.273       .  A
C497        O502   1.277       .  A
C497        C577   1.437       .  S
C498        O525   1.275       .  A
C498        C628   1.440       .  S
Mg499       O506   2.160       .  S
Mg499       O507   2.159       .  S
Mg499       O500   2.330       .  S
Mg499       O501   2.293       .  S
Mg499       O528   2.288       .  S
O501        C505   1.269       .  A
O502       Mg509   2.316       .  S
O503        C522   1.265       .  A
O504        C524   1.274       .  A
O504       Mg520   2.317       .  S
O506       Mg520   2.156       .  S
O506        C517   1.237       .  S
O507       Mg526   2.157       .  S
O508       Mg520   2.302       .  S
Mg509       O525   2.300       .  S
O510       Mg526   2.273       .  S
H511        C516   1.081       .  S
O512       Mg520   2.146       .  S
O512        C515   1.239       .  S
H513        C515   1.081       .  S
H514        C517   1.081       .  S
O519       Mg526   2.284       .  S
C522        O527   1.275       .  A
C522        C665   1.433       .  S
O523        C524   1.270       .  A
C524        C584   1.438       .  S
O529       Mg531   2.132       .  S
O529       Mg537   2.139       .  S
O529        C564   1.238       .  S
C530        O543   1.236       .  S
C530        O567   1.269       .  A
C530        H569   1.081       .  S
Mg531       O560   2.155       .  S
Mg531       O575   2.331       .  S
Mg531       O571   2.261       .  S
Mg531       O542   2.311       .  S
O532       Mg574   2.152       .  S
O532       Mg557   2.141       .  S
O532        C553   1.236       .  S
O533        C564   1.271       .  A
O533       Mg557   2.298       .  S
C534        O536   1.271       .  A
C534        O548   1.277       .  A
C534        C588   1.443       .  S
O535        C563   1.273       .  A
O535       Mg537   2.307       .  S
O536       Mg568   2.265       .  S
Mg537       O543   2.112       .  S
Mg537       O551   2.230       .  S
Mg537       O539   2.285       .  S
C538        O576   1.274       .  A
C538        O544   1.274       .  A
C538        C608   1.438       .  S
O539        C546   1.271       .  A
H540        C553   1.081       .  S
C541        O555   1.236       .  S
C541        O556   1.271       .  A
C541        H566   1.081       .  S
O542        C565   1.272       .  A
O543       Mg557   2.146       .  S
O544       Mg574   2.299       .  S
C545        O558   1.273       .  A
C545        O550   1.277       .  A
C545        C581   1.438       .  S
C546        O573   1.275       .  A
C546        C640   1.440       .  S
Mg547       O554   2.157       .  S
Mg547       O555   2.160       .  S
Mg547       O548   2.333       .  S
Mg547       O549   2.294       .  S
Mg547       O576   2.286       .  S
O549        C553   1.269       .  A
O550       Mg557   2.316   1_554  S
O551        C570   1.265       .  A
O552        C572   1.274       .  A
O552       Mg568   2.313       .  S
O554       Mg568   2.156       .  S
O554        C565   1.237       .  S
O555       Mg574   2.158       .  S
O556       Mg568   2.302       .  S
Mg557       O573   2.299       .  S
O558       Mg574   2.274   1_554  S
H559        C564   1.081       .  S
O560       Mg568   2.151       .  S
O560        C563   1.239       .  S
H561        C563   1.081       .  S
H562        C565   1.081       .  S
O567       Mg574   2.285       .  S
C570        O575   1.276       .  A
C570        C660   1.434       .  S
O571        C572   1.270       .  A
C572        C580   1.437       .  S
C577        C578   1.207       .  T
C578        C579   1.414       .  S
C579        C580   1.207       .  T
C581        C582   1.207       .  T
C582        C583   1.415       .  S
C583        C584   1.207       .  T
C585        C586   1.211       .  T
C586        C587   1.420   1_545  S
C587        C588   1.211       .  T
C589        C590   1.208       .  T
C590        C591   1.416   1_545  S
C591        C592   1.208       .  T
C593        C594   1.208       .  T
C594        C595   1.416       .  S
C595        C596   1.208       .  T
C597        C598   1.208       .  T
C598        C599   1.416       .  S
C599        C600   1.208       .  T
C601        C602   1.209       .  T
C602        C603   1.417   1_565  S
C603        C604   1.209       .  T
C605        C606   1.208       .  T
C606        C607   1.415   1_544  S
C607        C608   1.208       .  T
C609        C610   1.208       .  T
C610        C611   1.416       .  S
C611        C612   1.208       .  T
C613        C614   1.207       .  T
C614        C615   1.415       .  S
C615        C616   1.208       .  T
C617        C618   1.208       .  T
C618        C619   1.415       .  S
C619        C620   1.208       .  T
C621        C622   1.210       .  T
C622        C623   1.420       .  S
C623        C624   1.210   1_554  T
C625        C626   1.209       .  T
C626        C627   1.418       .  S
C627        C628   1.209       .  T
C629        C630   1.208       .  T
C630        C631   1.416   1_455  S
C631        C632   1.208       .  T
C633        C634   1.211       .  T
C634        C635   1.421   1_455  S
C635        C636   1.211       .  T
C637        C638   1.209       .  T
C638        C639   1.417       .  S
C639        C640   1.209       .  T
C641        C642   1.206       .  T
C642        C643   1.412   1_655  S
C643        C644   1.206       .  T
C645        C646   1.209       .  T
C646        C647   1.417       .  S
C647        C648   1.209       .  T
C649        C650   1.208       .  T
C650        C651   1.416       .  S
C651        C652   1.208       .  T
C653        C654   1.209       .  T
C654        C655   1.417   1_455  S
C655        C656   1.209       .  T
C657        C658   1.206       .  T
C658        C659   1.412       .  S
C659        C660   1.206       .  T
C661        C662   1.208       .  T
C662        C663   1.416       .  S
C663        C664   1.208       .  T
C665        C666   1.205       .  T
C666        C667   1.411       .  S
C667        C668   1.205       .  T
C669        C670   1.206       .  T
C670        C671   1.413       .  S
C671        C672   1.206       .  T
C673        C674   1.208   1_554  T
C674        C675   1.416       .  S
C675        C676   1.208       .  T
C677        C678   1.207       .  T
C678        C679   1.414       .  S
C679        C680   1.207       .  T
C681        C682   1.206       .  T
C682        C683   1.412       .  S
C683        C684   1.205       .  T
C685        C686   1.209       .  T
C686        C687   1.418       .  S
C687        C688   1.209       .  T
C689        C690   1.209       .  T
C690        C691   1.417       .  S
C691        C692   1.209       .  T
C693        C694   1.210       .  T
C694        C695   1.419       .  S
C695        C696   1.210       .  T
C697        C698   1.207       .  T
C698        C699   1.414       .  S
C699        C700   1.207       .  T
C701        C702   1.209       .  T
C702        C703   1.417       .  S
C703        C704   1.209       .  T
C705        C706   1.208       .  T
C706        C707   1.415       .  S
C707        C708   1.208       .  T
C709        C710   1.207       .  T
C710        C711   1.415       .  S
C711        C712   1.207       .  T
C713        C714   1.208       .  T
C714        C715   1.416       .  S
C715        C716   1.208       .  T
C717        C718   1.211       .  T
C718        C719   1.420       .  S
C719        C720   1.211       .  T
