geometry optimzed in LAMMPS
_audit_creation_date              2020-11-30 
_audit_creation_method            'lammps2cif' 
_symmetry_space_group_name_H-M    'P1' 
_symmetry_Int_Tables_number       1 
_symmetry_cell_setting            triclinic 
loop_ 
_symmetry_equiv_pos_as_xyz 
  x,y,z 
_cell_length_a                    42.16469318 
_cell_length_b                    42.304192821900656 
_cell_length_c                    74.23136604665879 
_cell_angle_alpha                 89.99518842465989 
_cell_angle_beta                  89.9530390444209 
_cell_angle_gamma                 90.01399453613985 
loop_ 
_atom_site_label 
_atom_site_type_symbol 
_atom_site_fract_x 
_atom_site_fract_y 
_atom_site_fract_z 
_atom_site_charge 
O1          O  0.45001636  0.41210124  0.91956142    -0.82400
C2          C  0.04955484  0.32639876  0.90427787     0.97000
O3          O  0.03583159  0.34469656  0.89337966    -0.71500
O4          O  0.47447455  0.33427508  0.89420548    -0.75100
Al5        Al  0.99983723  0.37153349  0.89572348     1.49000
C6          C  0.44729379  0.33123992  0.90113773     0.92200
O7          O  0.46868370  0.33632429  0.94430536    -0.81300
O8          O  0.02715890  0.40752575  0.94445069    -0.74900
Al9        Al  0.46166986  0.37403086  0.93117710     1.90100
O10         O  0.01854760  0.34450452  0.95120159    -0.73900
O11         O  0.05957530  0.39368995  0.91536784    -0.73800
O12         O  0.04682220  0.33055638  0.92101375    -0.79400
O13         O  0.02535485  0.40885826  0.89486245    -0.77600
O14         O  0.99876136  0.37161175  0.91968833    -1.13800
O15         O  0.46407955  0.39821048  0.89233531    -0.73000
C16         C  0.44868368  0.41600642  0.90276705     0.97800
C17         C  0.99291340  0.32969544  0.95347228     0.94100
Al18       Al  0.03493242  0.36927839  0.93199737     1.55600
O19         O  0.43858400  0.34868205  0.91407906    -0.77600
C20         C  0.05200105  0.41166641  0.90247366     0.98300
C21         C  0.50247941  0.41471473  0.95313480     0.93200
O22         O  0.47681251  0.39995309  0.95052299    -0.82900
O23         O  0.20789788  0.16984324  0.83522010    -0.82400
C24         C  0.29380314  0.07117967  0.85120365     0.97000
O25         O  0.27680856  0.08638914  0.86215000    -0.71500
O26         O  0.28709469  0.14746567  0.86010228    -0.75100
Al27       Al  0.24971458  0.12196397  0.85957564     1.49000
C28         C  0.28975463  0.17415200  0.85264126     0.92200
O29         O  0.28396562  0.14973851  0.81016206    -0.81300
O30         O  0.21085759  0.09243263  0.81140292    -0.74900
Al31       Al  0.24607634  0.15776162  0.82346101     1.90100
O32         O  0.27438587  0.10001031  0.80391086    -0.73900
O33         O  0.22539281  0.06137533  0.84124277    -0.73800
O34         O  0.28857874  0.07271763  0.83451429    -0.79400
O35         O  0.21257257  0.09661827  0.86171110    -0.77600
O36         O  0.24847696  0.12146833  0.83556817    -1.13800
O37         O  0.22268052  0.15751177  0.86259546    -0.73000
C38         C  0.20398314  0.17153908  0.85204205     0.97800
C39         C  0.28975507  0.12519369  0.80104658     0.94100
Al40       Al  0.24967912  0.08476436  0.82377070     1.55600
O41         O  0.27157429  0.18184977  0.83984683    -0.77600
C42         C  0.20897208  0.06972942  0.85468162     0.98300
C43         C  0.20461906  0.11672164  0.80219091     0.93200
O44         O  0.22007195  0.14194847  0.80451908    -0.82900
O45         O  0.30106432  0.41439821  0.58426971    -0.82400
C46         C  0.19453576  0.33721432  0.60026856     0.97000
O47         O  0.21078451  0.35342436  0.61107976    -0.71500
O48         O  0.27145323  0.34003909  0.61024132    -0.75100
Al49       Al  0.24815178  0.37808879  0.60844518     1.49000
C50         C  0.29772238  0.33412618  0.60284647     0.92200
O51         O  0.27619090  0.34023095  0.55933314    -0.81300
O52         O  0.22318107  0.41472900  0.55898445    -0.74900
Al53       Al  0.28608817  0.37732912  0.57256719     1.90100
O54         O  0.22654365  0.35068014  0.55320109    -0.73900
O55         O  0.19058163  0.40595474  0.58817066    -0.73800
O56         O  0.19702009  0.34140751  0.58354908    -0.79400
O57         O  0.22477708  0.41630379  0.60964172    -0.77600
O58         O  0.24895319  0.37783967  0.58430972    -1.13800
O59         O  0.28519650  0.40276156  0.61152547    -0.73000
C60         C  0.30208972  0.41898211  0.60103540     0.97800
C61         C  0.25127221  0.33449921  0.55057540     0.94100
Al62       Al  0.21255742  0.37813767  0.57204128     1.55600
O63         O  0.30706578  0.34989965  0.58937298    -0.77600
C64         C  0.19917211  0.42226167  0.60156898     0.98300
C65         C  0.24812448  0.42036997  0.55026987     0.93200
O66         O  0.27300845  0.40451312  0.55316854    -0.82900
O67         O  0.03647035  0.17943108  0.66937985    -0.82400
C68         C  0.45564603  0.07610380  0.65258109     0.97000
O69         O  0.47183890  0.09250421  0.64183086    -0.71500
O70         O  0.45999271  0.15307330  0.64441364    -0.75100
Al71       Al  0.99760978  0.12896785  0.64491693     1.49000
C72         C  0.45491558  0.17868839  0.65259117     0.92200
O73         O  0.46378836  0.15430687  0.69573743    -0.81300
O74         O  0.03611788  0.09919315  0.69338881    -0.74900
Al75       Al  0.50000615  0.16417898  0.68164580     1.90100
O76         O  0.47219072  0.10381877  0.70001457    -0.73900
O77         O  0.02551418  0.06957020  0.66329402    -0.73800
O78         O  0.46097169  0.07718383  0.66922037    -0.79400
O79         O  0.03528298  0.10507325  0.64245650    -0.77600
O80         O  0.99879972  0.12800582  0.66907831    -1.13800
O81         O  0.02290441  0.16552613  0.64211319    -0.73000
C82         C  0.03990043  0.18161779  0.65257296     0.97800
C83         C  0.45733791  0.12888252  0.70375308     0.94100
Al84       Al  0.99870152  0.09076160  0.68046228     1.55600
O85         O  0.47152227  0.18667858  0.66603330    -0.77600
C86         C  0.04129318  0.07888787  0.64979203     0.98300
C87         C  0.04315372  0.12342130  0.70233545     0.93200
O88         O  0.02847371  0.14910216  0.69987263    -0.82900
O89         O  0.30357776  0.09019676  0.41847904    -0.82400
C90         C  0.19973505  0.17083017  0.40153003     0.97000
O91         O  0.21640363  0.15476547  0.39085488    -0.71500
O92         O  0.27738409  0.16588319  0.39305863    -0.75100
Al93       Al  0.25264397  0.12862758  0.39393793     1.49000
C94         C  0.30301138  0.17115322  0.40125314     0.92200
O95         O  0.27817376  0.16311504  0.44451193    -0.81300
O96         O  0.22324586  0.09080747  0.44302010    -0.74900
Al97       Al  0.28825511  0.12682783  0.43057546     1.90100
O98         O  0.22760069  0.15442192  0.44896836    -0.73900
O99         O  0.19309466  0.10103814  0.41272623    -0.73800
O100        O  0.20044131  0.16537242  0.41818205    -0.79400
O101        O  0.22820387  0.09135684  0.39164974    -0.77600
O102        O  0.25180633  0.12774761  0.41812370    -1.13800
O103        O  0.28882660  0.10277292  0.39120313    -0.73000
C104        C  0.30498188  0.08592390  0.40170182     0.97800
C105        C  0.25269798  0.16924925  0.45267620     0.94100
Al106      Al  0.21445505  0.12788681  0.42966319     1.55600
O107        O  0.31080998  0.15492508  0.41484222    -0.77600
C108        C  0.20198893  0.08549432  0.39908019     0.98300
C109        C  0.24791591  0.08422484  0.45180458     0.93200
O110        O  0.27351635  0.09883343  0.44894612    -0.82900
O111        O  0.46423227  0.42928304  0.33156079    -0.82400
C112        C  0.04499359  0.32653286  0.34950193     0.97000
O113        O  0.02899632  0.34360390  0.36000860    -0.71500
O114        O  0.03955129  0.40413261  0.35769471    -0.75100
Al115      Al  0.50237616  0.37926598  0.35677271     1.49000
C116        C  0.04498666  0.42945359  0.34933759     0.92200
O117        O  0.03802696  0.40381202  0.30652405    -0.81300
O118        O  0.46437793  0.34958377  0.30790470    -0.74900
Al119      Al  0.00133811  0.41405672  0.31994655     1.90100
O120        O  0.02841126  0.35358289  0.30187310    -0.73900
O121        O  0.47460557  0.31950557  0.33808839    -0.73800
O122        O  0.03916675  0.32633948  0.33286035    -0.79400
O123        O  0.46517498  0.35457092  0.35915922    -0.77600
O124        O  0.00182397  0.37795648  0.33261841    -1.13800
O125        O  0.47604862  0.41531372  0.35910495    -0.73000
C126        C  0.45956560  0.43125009  0.34828422     0.97800
C127        C  0.04356813  0.37848821  0.29820196     0.94100
Al128      Al  0.50168988  0.34058803  0.32122139     1.55600
O129        O  0.02893084  0.43702777  0.33566984    -0.77600
C130        C  0.45913105  0.32849777  0.35172221     0.98300
C131        C  0.45865441  0.37400319  0.29876645     0.93200
O132        O  0.47414421  0.39907513  0.30139781    -0.82900
O133        O  0.04798941  0.16238703  0.08383613    -0.82400
C134        C  0.44916777  0.07686170  0.09966044     0.97000
O135        O  0.46370202  0.09397834  0.11082815    -0.71500
O136        O  0.02464372  0.08456189  0.10935695    -0.75100
Al137      Al  0.99917835  0.12140001  0.10840213     1.49000
C138        C  0.05178579  0.08216671  0.10242399     0.92200
O139        O  0.02816328  0.08628562  0.05973646    -0.81300
O140        O  0.47109303  0.15913512  0.06009720    -0.74900
Al141      Al  0.03603963  0.12427347  0.07249877     1.90100
O142        O  0.47850145  0.09588108  0.05284316    -0.73900
O143        O  0.43922238  0.14612681  0.08917677    -0.73800
O144        O  0.45042336  0.08273007  0.08306851    -0.79400
O145        O  0.47370311  0.15797271  0.11019901    -0.77600
O146        O  0.99933032  0.12227531  0.08440328    -1.13800
O147        O  0.03477047  0.14874087  0.11134465    -0.73000
C148        C  0.04979122  0.16644037  0.10062235     0.97800
C149        C  0.00381355  0.08044454  0.05044457     0.94100
Al150      Al  0.46286206  0.12104367  0.07233492     1.55600
O151        O  0.05995063  0.09962040  0.08941788    -0.77600
C152        C  0.44753156  0.16278095  0.10249612     0.98300
C153        C  0.99529633  0.16505087  0.05077174     0.93200
O154        O  0.02058874  0.14957663  0.05303907    -0.82900
O155        O  0.21255573  0.32170297  0.16772302    -0.82400
C156        C  0.29432637  0.42255784  0.15026779     0.97000
O157        O  0.27472798  0.40931045  0.13987193    -0.71500
O158        O  0.28493209  0.34837978  0.13988007    -0.75100
Al159      Al  0.24809756  0.37343521  0.14288346     1.49000
C160        C  0.29172817  0.32310623  0.14802356     0.92200
O161        O  0.28805519  0.34491600  0.19187647    -0.81300
O162        O  0.21512651  0.40129196  0.19187586    -0.74900
Al163      Al  0.25031540  0.33618793  0.17883985     1.90100
O164        O  0.27853119  0.39437850  0.19815860    -0.73900
O165        O  0.22819566  0.43350826  0.16247125    -0.73800
O166        O  0.29132241  0.42047077  0.16713679    -0.79400
O167        O  0.21044668  0.39851239  0.14321110    -0.77600
O168        O  0.25056020  0.37272948  0.16691171    -1.13800
O169        O  0.22172363  0.33768858  0.14025006    -0.73000
C170        C  0.20656009  0.32074693  0.15114440     0.97800
C171        C  0.29418464  0.36949248  0.20072367     0.94100
Al172      Al  0.25306764  0.40923524  0.17890926     1.55600
O173        O  0.27702832  0.31472766  0.16207971    -0.77600
C174        C  0.20894596  0.42557462  0.15029850     0.98300
C175        C  0.20824506  0.37631397  0.20034677     0.93200
O176        O  0.22367108  0.35105169  0.19778540    -0.82900
C177        C  0.07061026  0.19115670  0.10798636    -0.01900
C178        C  0.06725114  0.20077189  0.12591787    -0.09900
C179        C  0.08815860  0.22253760  0.13344569    -0.18700
C180        C  0.11348521  0.23518074  0.12324734     0.03700
C181        C  0.11651736  0.22557156  0.10495578     0.17900
C182        C  0.09502703  0.20395668  0.09749564    -0.20100
C183        C  0.14123769  0.23721954  0.09427974    -0.21400
C184        C  0.16311432  0.25833115  0.10137378    -0.19900
C185        C  0.16080002  0.26820788  0.11931667     0.19300
C186        C  0.13604319  0.25674887  0.13056468     0.01400
C187        C  0.13518791  0.26715422  0.14868950    -0.14700
C188        C  0.15807507  0.28786732  0.15534619    -0.12400
C189        C  0.18217611  0.29916177  0.14414619     0.00900
C190        C  0.18333026  0.28936512  0.12612874    -0.24600
H191        H  0.04841239  0.19126562  0.13424701     0.08900
H192        H  0.08395537  0.22870100  0.14731522     0.12500
H193        H  0.09787879  0.19641149  0.08362299     0.11200
H194        H  0.14372618  0.22987992  0.08035779     0.12400
H195        H  0.18205057  0.26691097  0.09278303     0.11400
H196        H  0.11731749  0.25962663  0.15812597     0.08500
H197        H  0.15676879  0.29526703  0.16930060     0.11800
H198        H  0.20220439  0.29781037  0.11743118     0.13600
C199        C  0.31701752  0.30260297  0.14112782    -0.01900
C200        C  0.34006244  0.29109199  0.15292527    -0.09900
C201        C  0.36300708  0.26979505  0.14696055    -0.18700
C202        C  0.36295038  0.25859868  0.12899744     0.03700
C203        C  0.33923755  0.27034565  0.11711079     0.17900
C204        C  0.31701806  0.29272950  0.12315406    -0.20100
C205        C  0.33726379  0.25898106  0.09944372    -0.21400
C206        C  0.35794496  0.23568213  0.09339494    -0.19900
C207        C  0.38158468  0.22370756  0.10472905     0.19300
C208        C  0.38492234  0.23550566  0.12256506     0.01400
C209        C  0.41001328  0.22351774  0.13319899    -0.14700
C210        C  0.43032751  0.20023813  0.12656647    -0.12400
C211        C  0.42624890  0.18791064  0.10922371     0.00900
C212        C  0.40190624  0.19989777  0.09833302    -0.24600
H213        H  0.34020255  0.29855311  0.16689370     0.08900
H214        H  0.37981712  0.26184222  0.15689386     0.12500
H215        H  0.29876898  0.30137042  0.11411445     0.11200
H216        H  0.31918195  0.26771734  0.09034732     0.12400
H217        H  0.35542514  0.22695597  0.07974102     0.11400
H218        H  0.41475696  0.23176974  0.14665964     0.08500
H219        H  0.44913473  0.19155968  0.13518170     0.11800
H220        H  0.39892753  0.19087123  0.08476246     0.13600
C221        C  0.32017045  0.44128583  0.14231116    -0.01900
C222        C  0.32137176  0.44539832  0.12361036    -0.09900
C223        C  0.34423294  0.46462024  0.11579035    -0.18700
C224        C  0.36671435  0.48064046  0.12650848     0.03700
C225        C  0.36647487  0.47508548  0.14541100     0.17900
C226        C  0.34327680  0.45554754  0.15312790    -0.20100
C227        C  0.38887240  0.98969100  0.15653033    -0.21400
C228        C  0.41068166  0.01085921  0.14937135    -0.19900
C229        C  0.41033527  0.01808571  0.13097547     0.19300
C230        C  0.38875118  0.00266486  0.11920474     0.01400
C231        C  0.38933825  0.01087602  0.10073497    -0.14700
C232        C  0.40953420  0.03437178  0.09440292    -0.12400
C233        C  0.42984343  0.05030185  0.10618561     0.00900
C234        C  0.43074997  0.04148073  0.12436954    -0.24600
H235        H  0.30413626  0.43415457  0.11489232     0.08900
H236        H  0.34329240  0.46668682  0.10135646     0.12500
H237        H  0.34283295  0.45199800  0.16759407     0.11200
H238        H  0.38910351  0.98521685  0.17090773     0.12400
H239        H  0.42733198  0.02232762  0.15836368     0.11400
H240        H  0.37399629  0.50026710  0.09086966     0.08500
H241        H  0.40862246  0.04060945  0.08025415     0.11800
H242        H  0.44675923  0.05345071  0.13353457     0.13600
C243        C  0.18566351  0.44899660  0.14401809    -0.01900
C244        C  0.19451585  0.48081417  0.14290375    -0.09900
C245        C  0.17325742  0.00352601  0.13668990    -0.18700
C246        C  0.14205219  0.49510365  0.13168731     0.03700
C247        C  0.13258300  0.46306496  0.13395021     0.17900
C248        C  0.15463395  0.44019711  0.13962013    -0.20100
C249        C  0.10116250  0.45414692  0.13061743    -0.21400
C250        C  0.07898946  0.47632671  0.12488790    -0.19900
C251        C  0.08803784  0.00763603  0.12158611     0.19300
C252        C  0.11989419  0.01733750  0.12460770     0.01400
C253        C  0.12845881  0.04856739  0.11983228    -0.14700
C254        C  0.10627446  0.06922607  0.11241936    -0.12400
C255        C  0.07479883  0.05979381  0.11000737     0.00900
C256        C  0.06562228  0.02916553  0.11484101    -0.24600
H257        H  0.21829150  0.48810549  0.14657518     0.08900
H258        H  0.18177496  0.02753451  0.13625383     0.12500
H259        H  0.14751249  0.41567826  0.14098931     0.11200
H260        H  0.09362940  0.42989415  0.13257780     0.12400
H261        H  0.05478887  0.46873481  0.12254763     0.11400
H262        H  0.15231239  0.05742300  0.12112663     0.08500
H263        H  0.11366806  0.09290228  0.10873601     0.11800
H264        H  0.04126004  0.02179831  0.11274456     0.13600
C265        C  0.18217204  0.37621504  0.21365214    -0.01900
C266        C  0.17206816  0.34751978  0.22109625    -0.09900
C267        C  0.14872699  0.34675312  0.23433252    -0.18700
C268        C  0.13471031  0.37490440  0.24076731     0.03700
C269        C  0.14416898  0.40395488  0.23274087     0.17900
C270        C  0.16764310  0.40436147  0.21927011    -0.20100
C271        C  0.13050322  0.43241893  0.23842217    -0.21400
C272        C  0.10815729  0.43274303  0.25222654    -0.19900
C273        C  0.09903771  0.40462361  0.26073665     0.19300
C274        C  0.11198099  0.37525334  0.25501714     0.01400
C275        C  0.10197251  0.34751517  0.26401111    -0.14700
C276        C  0.08007236  0.34887885  0.27802669    -0.12400
C277        C  0.06752069  0.37780691  0.28369960     0.00900
C278        C  0.07712226  0.40566299  0.27501155    -0.24600
H279        H  0.18243971  0.32535378  0.21676967     0.08900
H280        H  0.14246889  0.32368647  0.23932151     0.12500
H281        H  0.17507994  0.42668614  0.21345653     0.11200
H282        H  0.13739057  0.45463193  0.23227612     0.12400
H283        H  0.09821105  0.45518980  0.25641851     0.11400
H284        H  0.11063786  0.32432842  0.26064173     0.08500
H285        H  0.07304627  0.32705213  0.28454624     0.11800
H286        H  0.06723622  0.42814712  0.27921423     0.13600
C287        C  0.43414280  0.37352748  0.28450358    -0.01900
C288        C  0.42638870  0.40156995  0.27550687    -0.09900
C289        C  0.40429719  0.40172682  0.26159380    -0.18700
C290        C  0.38904510  0.37360350  0.25606804     0.03700
C291        C  0.39683968  0.34512493  0.26523224     0.17900
C292        C  0.41916093  0.34532728  0.27932641    -0.20100
C293        C  0.38235149  0.31665374  0.26023648    -0.21400
C294        C  0.36017595  0.31585449  0.24635432    -0.19900
C295        C  0.35190015  0.34351323  0.23712266     0.19300
C296        C  0.36627290  0.37279698  0.24184762     0.01400
C297        C  0.35704470  0.40009776  0.23221004    -0.14700
C298        C  0.33404713  0.39853736  0.21881799    -0.12400
C299        C  0.31968216  0.36979864  0.21432295     0.00900
C300        C  0.32902706  0.34220484  0.22332617    -0.24600
H301        H  0.43755485  0.42370844  0.27918933     0.08900
H302        H  0.39983145  0.42434231  0.25544750     0.12500
H303        H  0.42509333  0.32343465  0.28613602     0.11200
H304        H  0.38817309  0.29483550  0.26713958     0.12400
H305        H  0.34931539  0.29345775  0.24286685     0.11400
H306        H  0.36684977  0.42316380  0.23475716     0.08500
H307        H  0.32743684  0.42011158  0.21190109     0.11800
H308        H  0.31787162  0.31988602  0.21994011     0.13600
C309        C  0.07020159  0.30619841  0.35708347    -0.01900
C310        C  0.07832091  0.30873826  0.37533778    -0.09900
C311        C  0.10052839  0.28844478  0.38304631    -0.18700
C312        C  0.11534381  0.26459293  0.37271635     0.03700
C313        C  0.10781930  0.26278856  0.35405463     0.17900
C314        C  0.08552252  0.28352077  0.34644253    -0.20100
C315        C  0.12218764  0.23995107  0.34314445    -0.21400
C316        C  0.14357745  0.21849360  0.35040243    -0.19900
C317        C  0.15091739  0.21917556  0.36878004     0.19300
C318        C  0.13698361  0.24222890  0.38024311     0.01400
C319        C  0.14482850  0.24139400  0.39878457    -0.14700
C320        C  0.16524604  0.21836676  0.40563195    -0.12400
C321        C  0.17880313  0.19572177  0.39425424     0.00900
C322        C  0.17177437  0.19651192  0.37580550    -0.24600
H323        H  0.06718348  0.32635305  0.38383484     0.08900
H324        H  0.10535396  0.29192467  0.39715770     0.12500
H325        H  0.07958090  0.28149105  0.33227648     0.11200
H326        H  0.11665885  0.23851247  0.32890874     0.12400
H327        H  0.15414270  0.20095039  0.34161196     0.11400
H328        H  0.13525838  0.25788632  0.40841379     0.08500
H329        H  0.17043707  0.21830239  0.41992371     0.11800
H330        H  0.18201784  0.17894252  0.36689401     0.13600
C331        C  0.32464298  0.19596765  0.39456808    -0.01900
C332        C  0.34314514  0.21354789  0.40657469    -0.09900
C333        C  0.36412722  0.23662587  0.40025531    -0.18700
C334        C  0.36785293  0.24224691  0.38156796     0.03700
C335        C  0.34965664  0.22357465  0.36944765     0.17900
C336        C  0.32782902  0.20126685  0.37602797    -0.20100
C337        C  0.35380766  0.22680681  0.35082687    -0.21400
C338        C  0.37612811  0.24779095  0.34394080    -0.19900
C339        C  0.39412132  0.26682319  0.35548219     0.19300
C340        C  0.38956557  0.26504737  0.37444880     0.01400
C341        C  0.40689760  0.28623990  0.38542044    -0.14700
C342        C  0.42868302  0.30737392  0.37791102    -0.12400
C343        C  0.43432248  0.30774629  0.35933006     0.00900
C344        C  0.41677399  0.28758204  0.34816433    -0.24600
H345        H  0.34119484  0.20956710  0.42095390     0.08900
H346        H  0.37768699  0.24908675  0.41029548     0.12500
H347        H  0.31402838  0.18718720  0.36667023     0.11200
H348        H  0.34013801  0.21253213  0.34152072     0.12400
H349        H  0.37923433  0.24924947  0.32946772     0.11400
H350        H  0.40394704  0.28723639  0.39982956     0.08500
H351        H  0.44182975  0.32295885  0.38675934     0.11800
H352        H  0.42062585  0.28822822  0.33371802     0.13600
C353        C  0.32592253  0.06153111  0.39384821    -0.01900
C354        C  0.32450020  0.05530147  0.37531518    -0.09900
C355        C  0.34494520  0.03362487  0.36731564    -0.18700
C356        C  0.36780513  0.01733200  0.37763083     0.03700
C357        C  0.36872750  0.02316143  0.39651916     0.17900
C358        C  0.34787490  0.04506486  0.40442839    -0.20100
C359        C  0.39064764  0.50730755  0.40737915    -0.21400
C360        C  0.41181970  0.48586229  0.39988822    -0.19900
C361        C  0.41177201  0.47996696  0.38133449     0.19300
C362        C  0.38985988  0.49562521  0.36988377     0.01400
C363        C  0.39132139  0.98915119  0.35117121    -0.14700
C364        C  0.41373987  0.46817100  0.34418408    -0.12400
C365        C  0.43519891  0.45282328  0.35557220     0.00900
C366        C  0.43387304  0.45870232  0.37415284    -0.24600
H367        H  0.30753863  0.06743356  0.36681627     0.08900
H368        H  0.34224741  0.03027835  0.35302497     0.12500
H369        H  0.34909496  0.04963696  0.41878426     0.11200
H370        H  0.39147602  0.51157051  0.42176918     0.12400
H371        H  0.42855256  0.47399625  0.40865965     0.11400
H372        H  0.37576744  0.00012807  0.34153478     0.08500
H373        H  0.41429377  0.46401519  0.32978466     0.11800
H374        H  0.45050754  0.44709054  0.38310278     0.13600
C375        C  0.06959148  0.45108771  0.35604097    -0.01900
C376        C  0.09148424  0.46485437  0.34425278    -0.09900
C377        C  0.11458692  0.98572637  0.35070341    -0.18700
C378        C  0.11571789  0.49417975  0.36915834     0.03700
C379        C  0.09251019  0.48091341  0.38085261     0.17900
C380        C  0.07035373  0.45899670  0.37431371    -0.20100
C381        C  0.09110021  0.49004966  0.39894267    -0.21400
C382        C  0.11204695  0.51243264  0.40569570    -0.19900
C383        C  0.13563708  0.02541383  0.39469054     0.19300
C384        C  0.13840544  0.01589463  0.37637841     0.01400
C385        C  0.16384330  0.02842921  0.36619062    -0.14700
C386        C  0.18485651  0.05033662  0.37371846    -0.12400
C387        C  0.18101388  0.06075808  0.39151479     0.00900
C388        C  0.15647640  0.04794668  0.40194361    -0.24600
H389        H  0.09089670  0.45917197  0.33002235     0.08900
H390        H  0.13068148  0.99548393  0.34087961     0.12500
H391        H  0.05286854  0.44884195  0.38335131     0.11200
H392        H  0.07327739  0.48023503  0.40786449     0.12400
H393        H  0.10994053  0.51945155  0.41968889     0.11400
H394        H  0.16826824  0.02153057  0.35243717     0.08500
H395        H  0.20383564  0.05965304  0.36542740     0.11800
H396        H  0.15365963  0.05542790  0.41582814     0.13600
C397        C  0.24772964  0.44537318  0.53628260    -0.01900
C398        C  0.22025910  0.46338644  0.53346140    -0.09900
C399        C  0.21904873  0.48624527  0.51992305    -0.18700
C400        C  0.24546053  0.49193442  0.50863480     0.03700
C401        C  0.27350083  0.47406213  0.51178294     0.17900
C402        C  0.27433989  0.45101443  0.52542121    -0.20100
C403        C  0.30057904  0.97925624  0.50128641    -0.21400
C404        C  0.30055982  0.00200735  0.48778099    -0.19900
C405        C  0.27327826  0.01974094  0.48419632     0.19300
C406        C  0.24514856  0.01471755  0.49439344     0.01400
C407        C  0.21792168  0.03250588  0.48973225    -0.14700
C408        C  0.21876044  0.05442599  0.47565610    -0.12400
C409        C  0.24676823  0.05976573  0.46598833     0.00900
C410        C  0.27396444  0.04241734  0.47037478    -0.24600
H411        H  0.19938732  0.45973471  0.54172504     0.08900
H412        H  0.19712661  0.49914092  0.51870314     0.12500
H413        H  0.29576591  0.43732519  0.52750375     0.11200
H414        H  0.32202694  0.96574420  0.50361050     0.12400
H415        H  0.32200470  0.00559688  0.47998357     0.11400
H416        H  0.19554795  0.02987123  0.49658846     0.08500
H417        H  0.19752018  0.06776406  0.47255494     0.11800
H418        H  0.29566391  0.04632427  0.46283666     0.13600
C419        C  0.25195195  0.19368582  0.46696142    -0.01900
C420        C  0.22288744  0.20610855  0.47274849    -0.09900
C421        C  0.22155981  0.22851314  0.48651941    -0.18700
C422        C  0.24945911  0.23917100  0.49517683     0.03700
C423        C  0.27891163  0.22629215  0.48937923     0.17900
C424        C  0.27992601  0.20402253  0.47530212    -0.20100
C425        C  0.30717220  0.23561663  0.49771990    -0.21400
C426        C  0.30690058  0.25771793  0.51160352    -0.19900
C427        C  0.27838484  0.27128168  0.51741655     0.19300
C428        C  0.24921890  0.26216118  0.50931487     0.01400
C429        C  0.22112805  0.27672428  0.51560124    -0.14700
C430        C  0.22204093  0.29973617  0.52904906    -0.12400
C431        C  0.25081739  0.30897997  0.53686426     0.00900
C432        C  0.27891138  0.29428067  0.53113008    -0.24600
H433        H  0.20091330  0.19853964  0.46653915     0.08900
H434        H  0.19827679  0.23684792  0.49011242     0.12500
H435        H  0.30252057  0.19431512  0.47104605     0.11200
H436        H  0.32968858  0.22576952  0.49345657     0.12400
H437        H  0.32921922  0.26447908  0.51772630     0.11400
H438        H  0.19804595  0.27118836  0.51027664     0.08500
H439        H  0.19994141  0.31048023  0.53328850     0.11800
H440        H  0.30134302  0.30121049  0.53707151     0.13600
C441        C  0.17197455  0.31372911  0.60742348    -0.01900
C442        C  0.15578210  0.29332777  0.59580547    -0.09900
C443        C  0.13413096  0.27140501  0.60254301    -0.18700
C444        C  0.12791692  0.26925966  0.62124765     0.03700
C445        C  0.14411015  0.29038457  0.63293486     0.17900
C446        C  0.16597169  0.31213857  0.62597978    -0.20100
C447        C  0.13836714  0.28976632  0.65150259    -0.21400
C448        C  0.11693934  0.26836082  0.65879966    -0.19900
C449        C  0.10095842  0.24689947  0.64771811     0.19300
C450        C  0.10623370  0.24700087  0.62877510     0.01400
C451        C  0.08970228  0.22467690  0.61821090    -0.14700
C452        C  0.06867322  0.20343205  0.62608467    -0.12400
C453        C  0.06334128  0.20355964  0.64472055     0.00900
C454        C  0.07967579  0.22529968  0.65548419    -0.24600
H455        H  0.15986777  0.29425398  0.58140360     0.08900
H456        H  0.12259922  0.25663337  0.59271837     0.12500
H457        H  0.17815431  0.32808520  0.63508279     0.11200
H458        H  0.15053535  0.30596839  0.66045114     0.12400
H459        H  0.11297504  0.26847547  0.67323012     0.11400
H460        H  0.09247934  0.22288306  0.60382483     0.08500
H461        H  0.05642871  0.18680970  0.61743642     0.11800
H462        H  0.07562248  0.22563310  0.66991286     0.13600
C463        C  0.31837308  0.30928671  0.61041902    -0.01900
C464        C  0.31788336  0.30292666  0.62892393    -0.09900
C465        C  0.33897351  0.28120079  0.63647255    -0.18700
C466        C  0.36098206  0.26466710  0.62560601     0.03700
C467        C  0.36005918  0.26990200  0.60668030     0.17900
C468        C  0.33936804  0.29252769  0.59934338    -0.20100
C469        C  0.37982598  0.25256756  0.59519878    -0.21400
C470        C  0.40063957  0.23016774  0.60211134    -0.19900
C471        C  0.40307678  0.22543341  0.62072058     0.19300
C472        C  0.38375632  0.24306407  0.63279110     0.01400
C473        C  0.38877435  0.23896675  0.65150815    -0.14700
C474        C  0.41190016  0.21812958  0.65789964    -0.12400
C475        C  0.43003222  0.20013237  0.64591442     0.00900
C476        C  0.42530769  0.20365880  0.62735468    -0.24600
H477        H  0.30164983  0.31546310  0.63770180     0.08900
H478        H  0.33726670  0.27761037  0.65081432     0.12500
H479        H  0.33940568  0.29695002  0.58494853     0.11200
H480        H  0.37902223  0.25619811  0.58075126     0.12400
H481        H  0.41545570  0.21695179  0.59285269     0.11400
H482        H  0.37586143  0.25219633  0.66151667     0.08500
H483        H  0.41549578  0.21589683  0.67229607     0.11800
H484        H  0.43986359  0.19024105  0.61803728     0.13600
C485        C  0.32341082  0.44305805  0.60881840    -0.01900
C486        C  0.32477690  0.44694556  0.62755538    -0.09900
C487        C  0.34505181  0.46903732  0.63529270    -0.18700
C488        C  0.36483577  0.48818100  0.62448809     0.03700
C489        C  0.36332798  0.48424553  0.60546421     0.17900
C490        C  0.34271675  0.46187763  0.59783689    -0.20100
C491        C  0.38255413  0.00250283  0.59416467    -0.21400
C492        C  0.40352242  0.02444977  0.60134771    -0.19900
C493        C  0.40572026  0.02869028  0.61999964     0.19300
C494        C  0.38627137  0.01081116  0.63186843     0.01400
C495        C  0.38937178  0.01619668  0.65060269    -0.14700
C496        C  0.41145288  0.03775576  0.65723656    -0.12400
C497        C  0.43098887  0.05477905  0.64548213     0.00900
C498        C  0.42764646  0.05046141  0.62686173    -0.24600
H499        H  0.31016205  0.43268416  0.63639477     0.08900
H500        H  0.34472828  0.47035259  0.64978499     0.12500
H501        H  0.34185707  0.45901890  0.58332506     0.11200
H502        H  0.38151119  0.99965198  0.57966425     0.12400
H503        H  0.41827876  0.03807298  0.59224630     0.11400
H504        H  0.37532562  0.50398403  0.66053305     0.08500
H505        H  0.41342011  0.04086309  0.67167991     0.11800
H506        H  0.44262276  0.06361061  0.61763615     0.13600
C507        C  0.17840912  0.44794696  0.60807926    -0.01900
C508        C  0.16040296  0.46570339  0.59590009    -0.09900
C509        C  0.13946768  0.48899315  0.60200716    -0.18700
C510        C  0.13518170  0.49458598  0.62065108     0.03700
C511        C  0.15315982  0.47601387  0.63293581     0.17900
C512        C  0.17511503  0.45362914  0.62656715    -0.20100
C513        C  0.14838056  0.47914267  0.65150936    -0.21400
C514        C  0.12539693  0.49961235  0.65817312    -0.19900
C515        C  0.10746962  0.01839105  0.64647136     0.19300
C516        C  0.11290346  0.01704099  0.62757245     0.01400
C517        C  0.09573203  0.03818525  0.61648334    -0.14700
C518        C  0.07318374  0.05875437  0.62380984    -0.12400
C519        C  0.06658568  0.05853073  0.64230505     0.00900
C520        C  0.08402248  0.03847243  0.65357615    -0.24600
H521        H  0.16253643  0.46152093  0.58154724     0.08900
H522        H  0.12616993  0.50145525  0.59185007     0.12500
H523        H  0.18860615  0.43951134  0.63604955     0.11200
H524        H  0.16190159  0.46499058  0.66094326     0.12400
H525        H  0.12167576  0.00082634  0.67260644     0.11400
H526        H  0.09943047  0.03957641  0.60213430     0.08500
H527        H  0.06025328  0.07437986  0.61488507     0.11800
H528        H  0.07952522  0.03874208  0.66796601     0.13600
C529        C  0.17971480  0.11605288  0.78813469    -0.01900
C530        C  0.16721494  0.08749869  0.78174594    -0.09900
C531        C  0.14527549  0.08723417  0.76758869    -0.18700
C532        C  0.13500842  0.11573803  0.75942637     0.03700
C533        C  0.14719779  0.14459807  0.76635356     0.17900
C534        C  0.16929532  0.14446747  0.78043809    -0.20100
C535        C  0.13741100  0.17356102  0.75916458    -0.21400
C536        C  0.11551477  0.17461741  0.74523608    -0.19900
C537        C  0.10316422  0.14672281  0.73798219     0.19300
C538        C  0.11300158  0.11681589  0.74476957     0.01400
C539        C  0.10042900  0.08942133  0.73652147    -0.14700
C540        C  0.07847076  0.09172528  0.72249353    -0.12400
C541        C  0.06810906  0.12128833  0.71629183     0.00900
C542        C  0.08082570  0.14867146  0.72401214    -0.24600
H543        H  0.17485718  0.06522232  0.78747880     0.08900
H544        H  0.13678704  0.06439035  0.76335222     0.12500
H545        H  0.17854332  0.16675955  0.78538689     0.11200
H546        H  0.14664336  0.19561991  0.76442730     0.12400
H547        H  0.10823362  0.19745264  0.74007151     0.11400
H548        H  0.10707500  0.06589787  0.74060052     0.08500
H549        H  0.06906671  0.07015224  0.71672319     0.11800
H550        H  0.07322544  0.17164395  0.71918082     0.13600
C551        C  0.43216377  0.12814064  0.71770721    -0.01900
C552        C  0.41693363  0.09962350  0.72179109    -0.09900
C553        C  0.39339647  0.09821320  0.73500088    -0.18700
C554        C  0.38448341  0.12541208  0.74487826     0.03700
C555        C  0.40018745  0.15431731  0.74081860     0.17900
C556        C  0.42347322  0.15551642  0.72719366    -0.20100
C557        C  0.39274861  0.18175570  0.75050124    -0.21400
C558        C  0.37009273  0.18113236  0.76416715    -0.19900
C559        C  0.35400139  0.15312842  0.76840374     0.19300
C560        C  0.36081318  0.12490215  0.75872501     0.01400
C561        C  0.34359215  0.09738575  0.76332990    -0.14700
C562        C  0.32087266  0.09780165  0.77699980    -0.12400
C563        C  0.31433090  0.12552639  0.78666046     0.00900
C564        C  0.33106250  0.15318465  0.78224954    -0.24600
H565        H  0.42309546  0.07819126  0.71460631     0.08900
H566        H  0.38289940  0.07534652  0.73725853     0.12500
H567        H  0.43532048  0.17767349  0.72422541     0.11200
H568        H  0.40468710  0.20385680  0.74755462     0.12400
H569        H  0.36505399  0.20276236  0.77144605     0.11400
H570        H  0.34694567  0.07511335  0.75657532     0.08500
H571        H  0.30830634  0.07608663  0.77999159     0.11800
H572        H  0.32615045  0.17485192  0.78953071     0.13600
C573        C  0.50367313  0.44019363  0.96678566    -0.01900
C574        C  0.03280242  0.45278834  0.97233198    -0.09900
C575        C  0.03418054  0.47583780  0.98577583    -0.18700
C576        C  0.50625067  0.48722073  0.99411733     0.03700
C577        C  0.47669173  0.47507553  0.98801372     0.17900
C578        C  0.47568850  0.45171252  0.97459589    -0.20100
C579        C  0.44825642  0.48618856  0.99538690    -0.21400
C580        C  0.44847932  0.00907090  0.00879945    -0.19900
C581        C  0.47715613  0.02105498  0.01536613     0.19300
C582        C  0.50651344  0.01017028  0.00825507     0.01400
C583        C  0.03477460  0.02247044  0.01578649    -0.14700
C584        C  0.03383120  0.04480899  0.02963769    -0.12400
C585        C  0.00482056  0.05586307  0.03630919     0.00900
C586        C  0.47658441  0.04382704  0.02909970    -0.24600
H587        H  0.05477354  0.44447489  0.96642971     0.08900
H588        H  0.05746391  0.48428535  0.98930245     0.12500
H589        H  0.45297021  0.44243912  0.97024429     0.11200
H590        H  0.42565208  0.47713986  0.99072811     0.12400
H591        H  0.42603823  0.01724976  0.01419523     0.11400
H592        H  0.05798559  0.01515467  0.01137951     0.08500
H593        H  0.05597013  0.05379730  0.03497744     0.11800
H594        H  0.45399056  0.05203538  0.03429656     0.13600
C595        C  0.99163870  0.30468820  0.96721893    -0.01900
C596        C  0.46294362  0.29644022  0.97541221    -0.09900
C597        C  0.46216378  0.27385565  0.98911268    -0.18700
C598        C  0.99023623  0.25854941  0.99488084     0.03700
C599        C  0.01911676  0.26644421  0.98606126     0.17900
C600        C  0.01958235  0.28948052  0.97253112    -0.20100
C601        C  0.04743493  0.25139585  0.99080150    -0.21400
C602        C  0.04780345  0.22864443  0.00425413    -0.19900
C603        C  0.01994576  0.22074311  0.01344169     0.19300
C604        C  0.99075797  0.23567697  0.00900295     0.01400
C605        C  0.46348933  0.22721222  0.01900404    -0.14700
C606        C  0.46513637  0.20462990  0.03265377    -0.12400
C607        C  0.99387809  0.18969525  0.03675006     0.00900
C608        C  0.02119091  0.19795311  0.02710516    -0.24600
H609        H  0.44108548  0.30796610  0.97146421     0.08900
H610        H  0.43923479  0.26888417  0.99485926     0.12500
H611        H  0.04183198  0.29551406  0.96603094     0.11200
H612        H  0.06946015  0.25722882  0.98403067     0.12400
H613        H  0.07009740  0.21731695  0.00759103     0.11400
H614        H  0.44056940  0.23769011  0.01669678     0.08500
H615        H  0.44367786  0.19868111  0.03994023     0.11800
H616        H  0.04359535  0.18663116  0.03023678     0.13600
C617        C  0.17806291  0.19070634  0.85974894    -0.01900
C618        C  0.17173281  0.18939898  0.87827662    -0.09900
C619        C  0.14911508  0.20913488  0.88606546    -0.18700
C620        C  0.13218727  0.23121700  0.87552910     0.03700
C621        C  0.13786178  0.23158571  0.85661937     0.17900
C622        C  0.16042044  0.21127323  0.84892749    -0.20100
C623        C  0.12165264  0.25284788  0.84553768    -0.21400
C624        C  0.10057434  0.27449233  0.85287940    -0.19900
C625        C  0.09517088  0.27533792  0.87147110     0.19300
C626        C  0.11049985  0.25347539  0.88308929     0.01400
C627        C  0.10402602  0.25545915  0.90178394    -0.14700
C628        C  0.08396787  0.27880993  0.90863781    -0.12400
C629        C  0.06956758  0.30068782  0.89711823     0.00900
C630        C  0.07492368  0.29844338  0.87852515    -0.24600
H631        H  0.18468858  0.17331096  0.88691555     0.08900
H632        H  0.14589819  0.20688225  0.90040665     0.12500
H633        H  0.16498993  0.21227115  0.83455719     0.11200
H634        H  0.12573806  0.25313200  0.83111834     0.12400
H635        H  0.08878279  0.29103628  0.84397206     0.11400
H636        H  0.11438549  0.23963477  0.91150393     0.08500
H637        H  0.07996229  0.27989349  0.92304272     0.11800
H638        H  0.06379727  0.31519293  0.86945501     0.13600
C639        C  0.31336982  0.19736362  0.85915688    -0.01900
C640        C  0.30684954  0.22971193  0.85768391    -0.09900
C641        C  0.32817525  0.25223987  0.86411590    -0.18700
C642        C  0.35725626  0.24313576  0.87202497     0.03700
C643        C  0.36458874  0.21033182  0.87263441     0.17900
C644        C  0.34235507  0.18776869  0.86663179    -0.20100
C645        C  0.39413974  0.20035838  0.87910498    -0.21400
C646        C  0.41656496  0.22226975  0.88497123    -0.19900
C647        C  0.40953223  0.25463166  0.88523364     0.19300
C648        C  0.37942395  0.26543523  0.87916295     0.01400
C649        C  0.37246664  0.29799770  0.88095714    -0.14700
C650        C  0.39458200  0.31891940  0.88825548    -0.12400
C651        C  0.42457406  0.30839103  0.89353362     0.00900
C652        C  0.43212827  0.27627228  0.89186793    -0.24600
H653        H  0.28477656  0.23769742  0.85176541     0.08900
H654        H  0.32146210  0.27663320  0.86239726     0.14100
H655        H  0.34785487  0.16276722  0.86743664     0.11200
H656        H  0.40009637  0.17544480  0.87944071     0.12400
H657        H  0.43933520  0.21377911  0.88969782     0.11400
H658        H  0.34980615  0.30789161  0.87732690     0.08500
H659        H  0.38833802  0.34365568  0.88962022     0.11800
H660        H  0.45519980  0.26803085  0.89629046     0.13600
C661        C  0.31916218  0.05063289  0.85823930    -0.01900
C662        C  0.33872675  0.03367364  0.84649471    -0.09900
C663        C  0.36137121  0.01273893  0.85316376    -0.18700
C664        C  0.36500061  0.00793993  0.87192318     0.03700
C665        C  0.34541344  0.52566875  0.88377670     0.17900
C666        C  0.32300298  0.04686977  0.87688030    -0.20100
C667        C  0.34783471  0.52171797  0.90244397    -0.21400
C668        C  0.36900603  0.50000701  0.90964980    -0.19900
C669        C  0.38837127  0.48189702  0.89835613     0.19300
C670        C  0.38691112  0.48583048  0.87933408     0.01400
C671        C  0.40716728  0.46714655  0.86855068    -0.14700
C672        C  0.42741154  0.44504448  0.87628696    -0.12400
C673        C  0.42831986  0.44080071  0.89498827     0.00900
C674        C  0.40896134  0.45955417  0.90597660    -0.24600
H675        H  0.33628202  0.03626333  0.83204280     0.08900
H676        H  0.37527667  0.00038876  0.84324148     0.12500
H677        H  0.30797862  0.05993250  0.88611357     0.11200
H678        H  0.33296216  0.53523628  0.91153104     0.12400
H679        H  0.37007607  0.49720034  0.92415250     0.11400
H680        H  0.40786575  0.96880584  0.85408384     0.08500
H681        H  0.44224700  0.43095745  0.86747851     0.11800
H682        H  0.40954065  0.45645856  0.92047668     0.13600
C683        C  0.18642784  0.04709456  0.86261543    -0.01900
C684        C  0.19723476  0.01741255  0.86813255    -0.09900
C685        C  0.17633502  0.49530840  0.87549765    -0.18700
C686        C  0.14356015  0.00196918  0.87705470     0.03700
C687        C  0.13257328  0.03182122  0.87082024     0.17900
C688        C  0.15417377  0.05442822  0.86420146    -0.20100
C689        C  0.10004533  0.03852216  0.87077317    -0.21400
C690        C  0.07811301  0.01590143  0.87634478    -0.19900
C691        C  0.08822597  0.48655172  0.88290516     0.19300
C692        C  0.12119424  0.47967734  0.88399318     0.01400
C693        C  0.13036483  0.45088701  0.89211211    -0.14700
C694        C  0.10774983  0.42931982  0.89819567    -0.12400
C695        C  0.07528891  0.43532779  0.89614401     0.00900
C696        C  0.06562262  0.46407300  0.88852837    -0.24600
H697        H  0.22211110  0.01137590  0.86683133     0.08900
H698        H  0.18636530  0.47283243  0.87927226     0.12500
H699        H  0.14576946  0.07727746  0.85960937     0.11200
H700        H  0.09144436  0.06111906  0.86593590     0.12400
H701        H  0.05306640  0.02153070  0.87568914     0.11400
H702        H  0.15484917  0.44462860  0.89426694     0.08500
H703        H  0.11577278  0.40749373  0.90432254     0.11800
H704        H  0.04051398  0.46922312  0.88735348     0.13600
O705        O  0.45001629  0.91210116  0.91956142    -0.82400
C706        C  0.04955517  0.82639909  0.90427795     0.97000
O707        O  0.03583197  0.84469692  0.89337975    -0.71500
O708        O  0.47447423  0.83427488  0.89420550    -0.75100
Al709      Al  0.99983752  0.87153375  0.89572356     1.49000
C710        C  0.44729348  0.83123980  0.90113778     0.92200
O711        O  0.46868360  0.83632419  0.94430534    -0.81300
O712        O  0.02715906  0.90752597  0.94445081    -0.74900
Al713      Al  0.46166977  0.87403076  0.93117710     1.90100
O714        O  0.01854785  0.84450473  0.95120169    -0.73900
O715        O  0.05957551  0.89369033  0.91536797    -0.73800
O716        O  0.04682252  0.83055669  0.92101383    -0.79400
O717        O  0.02535503  0.90885861  0.89486258    -0.77600
O718        O  0.99876161  0.87161197  0.91968842    -1.13800
O719        O  0.46407937  0.89821031  0.89233531    -0.73000
C720        C  0.44868356  0.91600629  0.90276704     0.97800
C721        C  0.99291366  0.82969563  0.95347238     0.94100
Al722      Al  0.03493265  0.86927866  0.93199747     1.55600
O723        O  0.43858378  0.84868198  0.91407910    -0.77600
C724        C  0.05200123  0.91166680  0.90247380     0.98300
C725        C  0.50247945  0.91471457  0.95313477     0.93200
O726        O  0.47681253  0.89995295  0.95052298    -0.82900
O727        O  0.20789757  0.66984300  0.83522015    -0.82400
C728        C  0.29380297  0.57117951  0.85120362     0.97000
O729        O  0.27680840  0.58638897  0.86214997    -0.71500
O730        O  0.28709438  0.64746552  0.86010229    -0.75100
Al731      Al  0.24971433  0.62196371  0.85957565     1.49000
C732        C  0.28975429  0.67415186  0.85264128     0.92200
O733        O  0.28396530  0.64973835  0.81016208    -0.81300
O734        O  0.21085735  0.59243242  0.81140291    -0.74900
Al735      Al  0.24607603  0.65776142  0.82346104     1.90100
O736        O  0.27438558  0.60001015  0.80391084    -0.73900
O737        O  0.22539265  0.56137504  0.84124274    -0.73800
O738        O  0.28857853  0.57271742  0.83451427    -0.79400
O739        O  0.21257241  0.59661790  0.86171112    -0.77600
O740        O  0.24847669  0.62146811  0.83556817    -1.13800
O741        O  0.22268018  0.65751142  0.86259550    -0.73000
C742        C  0.20398282  0.67153880  0.85204209     0.97800
C743        C  0.28975478  0.62519354  0.80104658     0.94100
Al744      Al  0.24967889  0.58476415  0.82377068     1.55600
O745        O  0.27157396  0.68184960  0.83984685    -0.77600
C746        C  0.20897195  0.56972905  0.85468163     0.98300
C747        C  0.20461879  0.61672145  0.80219091     0.93200
O748        O  0.22007165  0.64194829  0.80451910    -0.82900
O749        O  0.30106405  0.91439813  0.58426965    -0.82400
C750        C  0.19453552  0.83721431  0.60026863     0.97000
O751        O  0.21078440  0.85342425  0.61107982    -0.71500
O752        O  0.27145308  0.84003895  0.61024127    -0.75100
Al753      Al  0.24815164  0.87808868  0.60844519     1.49000
C754        C  0.29772223  0.83412611  0.60284642     0.92200
O755        O  0.27619054  0.84023086  0.55933313    -0.81300
O756        O  0.22318078  0.91472898  0.55898447    -0.74900
Al757      Al  0.28608788  0.87732903  0.57256715     1.90100
O758        O  0.22654327  0.85068011  0.55320112    -0.73900
O759        O  0.19058145  0.90595475  0.58817075    -0.73800
O760        O  0.19701977  0.84140754  0.58354914    -0.79400
O761        O  0.22477694  0.91630369  0.60964180    -0.77600
O762        O  0.24895294  0.87783960  0.58430973    -1.13800
O763        O  0.28519633  0.90276146  0.61152542    -0.73000
C764        C  0.30208945  0.91898207  0.60103534     0.97800
C765        C  0.25127183  0.83449917  0.55057539     0.94100
Al766      Al  0.21255713  0.87813766  0.57204133     1.55600
O767        O  0.30706558  0.84989961  0.58937293    -0.77600
C768        C  0.19917198  0.92226162  0.60156908     0.98300
C769        C  0.24812417  0.92036986  0.55026983     0.93200
O770        O  0.27300811  0.90451297  0.55316848    -0.82900
O771        O  0.03647024  0.67943088  0.66937982    -0.82400
C772        C  0.45564594  0.57610409  0.65258121     0.97000
O773        O  0.47183884  0.59250450  0.64183100    -0.71500
O774        O  0.45999268  0.65307357  0.64441381    -0.75100
Al775      Al  0.99760974  0.62896769  0.64491685     1.49000
C776        C  0.45491558  0.67868868  0.65259134     0.92200
O777        O  0.46378837  0.65430712  0.69573761    -0.81300
O778        O  0.03611788  0.59919306  0.69338867    -0.74900
Al779      Al  0.50000616  0.66417922  0.68164596     1.90100
O780        O  0.47219063  0.60381899  0.70001469    -0.73900
O781        O  0.02551411  0.56957004  0.66329391    -0.73800
O782        O  0.46097158  0.57718411  0.66922049    -0.79400
O783        O  0.03528297  0.60507314  0.64245644    -0.77600
O784        O  0.99879965  0.62800567  0.66907822    -1.13800
O785        O  0.02290433  0.66552600  0.64211314    -0.73000
C786        C  0.03990035  0.68161762  0.65257294     0.97800
C787        C  0.45733785  0.62888274  0.70375322     0.94100
Al788      Al  0.99870149  0.59076147  0.68046220     1.55600
O789        O  0.47152226  0.68667883  0.66603348    -0.77600
C790        C  0.04129313  0.57888774  0.64979194     0.98300
C791        C  0.04315362  0.62342120  0.70233535     0.93200
O792        O  0.02847350  0.64910200  0.69987258    -0.82900
O793        O  0.30357762  0.59019677  0.41847903    -0.82400
C794        C  0.19973497  0.67083018  0.40152999     0.97000
O795        O  0.21640360  0.65476555  0.39085483    -0.71500
O796        O  0.27738405  0.66588324  0.39305862    -0.75100
Al797      Al  0.25264391  0.62862764  0.39393788     1.49000
C798        C  0.30301137  0.67115320  0.40125311     0.92200
O799        O  0.27817356  0.66311513  0.44451184    -0.81300
O800        O  0.22324579  0.59080737  0.44302002    -0.74900
Al801      Al  0.28825498  0.62682787  0.43057543     1.90100
O802        O  0.22760054  0.65442183  0.44896833    -0.73900
O803        O  0.19309459  0.60103808  0.41272615    -0.73800
O804        O  0.20044117  0.66537236  0.41818201    -0.79400
O805        O  0.22820379  0.59135687  0.39164965    -0.77600
O806        O  0.25180622  0.62774763  0.41812365    -1.13800
O807        O  0.28882656  0.60277298  0.39120311    -0.73000
C808        C  0.30498180  0.58592395  0.40170182     0.97800
C809        C  0.25269778  0.66924927  0.45267613     0.94100
Al810      Al  0.21445494  0.62788675  0.42966313     1.55600
O811        O  0.31080992  0.65492506  0.41484219    -0.77600
C812        C  0.20198886  0.58549429  0.39908009     0.98300
C813        C  0.24791583  0.58422484  0.45180454     0.93200
O814        O  0.27351621  0.59883353  0.44894611    -0.82900
O815        O  0.46423218  0.92928287  0.33156074    -0.82400
C816        C  0.04499353  0.82653288  0.34950201     0.97000
O817        O  0.02899627  0.84360394  0.36000868    -0.71500
O818        O  0.03955132  0.90413267  0.35769482    -0.75100
Al819      Al  0.50237617  0.87926587  0.35677265     1.49000
C820        C  0.04498670  0.92945366  0.34933771     0.92200
O821        O  0.03802705  0.90381208  0.30652416    -0.81300
O822        O  0.46437794  0.84958357  0.30790467    -0.74900
Al823      Al  0.00133819  0.91405682  0.31994663     1.90100
O824        O  0.02841133  0.85358294  0.30187322    -0.73900
O825        O  0.47460572  0.81950540  0.33808837    -0.73800
O826        O  0.03916669  0.82633951  0.33286043    -0.79400
O827        O  0.46517498  0.85457081  0.35915915    -0.77600
O828        O  0.00182400  0.87795658  0.33261849    -1.13800
O829        O  0.47604862  0.91531362  0.35910490    -0.73000
C830        C  0.45956556  0.93124995  0.34828417     0.97800
C831        C  0.04356821  0.87848825  0.29820207     0.94100
Al832      Al  0.50168993  0.84058791  0.32122134     1.55600
O833        O  0.02893089  0.93702784  0.33566994    -0.77600
C834        C  0.45913115  0.82849761  0.35172216     0.98300
C835        C  0.45865439  0.87400299  0.29876641     0.93200
O836        O  0.47414419  0.89907494  0.30139777    -0.82900
O837        O  0.04798955  0.66238684  0.08383613    -0.82400
C838        C  0.44916762  0.57686194  0.09966045     0.97000
O839        O  0.46370192  0.59397859  0.11082815    -0.71500
O840        O  0.02464383  0.58456170  0.10935692    -0.75100
Al841      Al  0.99917847  0.62139983  0.10840209     1.49000
C842        C  0.05178591  0.58216652  0.10242397     0.92200
O843        O  0.02816347  0.58628546  0.05973640    -0.81300
O844        O  0.47109296  0.65913524  0.06009719    -0.74900
Al845      Al  0.03603980  0.62427330  0.07249875     1.90100
O846        O  0.47850136  0.59588123  0.05284317    -0.73900
O847        O  0.43922223  0.64612698  0.08917674    -0.73800
O848        O  0.45042322  0.58273028  0.08306851    -0.79400
O849        O  0.47370294  0.65797295  0.11019897    -0.77600
O850        O  0.99933046  0.62227513  0.08440325    -1.13800
O851        O  0.03477057  0.64874069  0.11134465    -0.73000
C852        C  0.04979134  0.66644019  0.10062236     0.97800
C853        C  0.00381374  0.58044437  0.05044451     0.94100
Al854      Al  0.46286196  0.62104384  0.07233491     1.55600
O855        O  0.05995077  0.59962020  0.08941787    -0.77600
C856        C  0.44753140  0.66278116  0.10249607     0.98300
C857        C  0.99529652  0.66505074  0.05077172     0.93200
O858        O  0.02058893  0.64957652  0.05303906    -0.82900
O859        O  0.21255566  0.82170303  0.16772303    -0.82400
C860        C  0.29432612  0.92255804  0.15026777     0.97000
O861        O  0.27472773  0.90931063  0.13987192    -0.71500
O862        O  0.28493193  0.84838001  0.13988002    -0.75100
Al863      Al  0.24809736  0.87343535  0.14288346     1.49000
C864        C  0.29172808  0.82310647  0.14802351     0.92200
O865        O  0.28805522  0.84491619  0.19187641    -0.81300
O866        O  0.21512633  0.90129197  0.19187587    -0.74900
Al867      Al  0.25031538  0.83618805  0.17883984     1.90100
O868        O  0.27853104  0.89437863  0.19815860    -0.73900
O869        O  0.22819546  0.93350836  0.16247127    -0.73800
O870        O  0.29132219  0.92047094  0.16713677    -0.79400
O871        O  0.21044644  0.89851246  0.14321114    -0.77600
O872        O  0.25056007  0.87272960  0.16691170    -1.13800
O873        O  0.22172346  0.83768868  0.14025007    -0.73000
C874        C  0.20655996  0.82074701  0.15114442     0.97800
C875        C  0.29418457  0.86949265  0.20072366     0.94100
Al876      Al  0.25306746  0.90923535  0.17890926     1.55600
O877        O  0.27702827  0.81472786  0.16207966    -0.77600
C878        C  0.20894575  0.92557471  0.15029853     0.98300
C879        C  0.20824497  0.87631395  0.20034679     0.93200
O880        O  0.22367109  0.85105174  0.19778542    -0.82900
C881        C  0.07061032  0.69115657  0.10798637    -0.01900
C882        C  0.06725109  0.70077183  0.12591786    -0.09900
C883        C  0.08815846  0.72253764  0.13344568    -0.18700
C884        C  0.11348507  0.73518079  0.12324736     0.03700
C885        C  0.11651729  0.72557157  0.10495581     0.17900
C886        C  0.09502706  0.70395659  0.09749566    -0.20100
C887        C  0.14123762  0.73721955  0.09427979    -0.21400
C888        C  0.16311420  0.75833118  0.10137383    -0.19900
C889        C  0.16079989  0.76820793  0.11931671     0.19300
C890        C  0.13604302  0.75674895  0.13056471     0.01400
C891        C  0.13518770  0.76715437  0.14868953    -0.14700
C892        C  0.15807486  0.78786748  0.15534622    -0.12400
C893        C  0.18217596  0.79916185  0.14414622     0.00900
C894        C  0.18333012  0.78936516  0.12612879    -0.24600
H895        H  0.04841233  0.69126554  0.13424698     0.08900
H896        H  0.08395516  0.72870109  0.14731524     0.12500
H897        H  0.09787889  0.69641137  0.08362300     0.11200
H898        H  0.14372618  0.72987986  0.08035783     0.12400
H899        H  0.18205051  0.76691099  0.09278309     0.11400
H900        H  0.11731719  0.75962684  0.15812599     0.08500
H901        H  0.15676856  0.79526726  0.16930061     0.11800
H902        H  0.20220432  0.79781039  0.11743121     0.13600
C903        C  0.31701746  0.80260327  0.14112774    -0.01900
C904        C  0.34006240  0.79109230  0.15292520    -0.09900
C905        C  0.36300702  0.76979536  0.14696047    -0.18700
C906        C  0.36295030  0.75859894  0.12899738     0.03700
C907        C  0.33923747  0.77034592  0.11711072     0.17900
C908        C  0.31701800  0.79272979  0.12315399    -0.20100
C909        C  0.33726370  0.75898131  0.09944366    -0.21400
C910        C  0.35794481  0.73568233  0.09339488    -0.19900
C911        C  0.38158451  0.72370775  0.10472901     0.19300
C912        C  0.38492221  0.73550588  0.12256500     0.01400
C913        C  0.41001315  0.72351796  0.13319893    -0.14700
C914        C  0.43032736  0.70023834  0.12656641    -0.12400
C915        C  0.42624874  0.68791085  0.10922366     0.00900
C916        C  0.40190605  0.69989794  0.09833297    -0.24600
H917        H  0.34020252  0.79855344  0.16689361     0.08900
H918        H  0.37981712  0.76184253  0.15689381     0.12500
H919        H  0.29876888  0.80137072  0.11411437     0.11200
H920        H  0.31918184  0.76771764  0.09034722     0.12400
H921        H  0.35542502  0.72695622  0.07974102     0.11400
H922        H  0.41475683  0.73176998  0.14665960     0.08500
H923        H  0.44913455  0.69155986  0.13518164     0.11800
H924        H  0.39892732  0.69087140  0.08476245     0.13600
C925        C  0.32017019  0.94128604  0.14231113    -0.01900
C926        C  0.32137136  0.94539870  0.12361032    -0.09900
C927        C  0.34423264  0.96462050  0.11579032    -0.18700
C928        C  0.36671427  0.98064044  0.12650842     0.03700
C929        C  0.36647481  0.97508541  0.14541095     0.17900
C930        C  0.34327668  0.95554754  0.15312784    -0.20100
C931        C  0.38887239  0.48969120  0.15653038    -0.21400
C932        C  0.41068163  0.51085944  0.14937140    -0.19900
C933        C  0.41033520  0.51808593  0.13097551     0.19300
C934        C  0.38875110  0.50266504  0.11920479     0.01400
C935        C  0.38933800  0.51087635  0.10073505    -0.14700
C936        C  0.40953391  0.53437212  0.09440298    -0.12400
C937        C  0.42984327  0.55030212  0.10618565     0.00900
C938        C  0.43074986  0.54148096  0.12436956    -0.24600
H939        H  0.30413573  0.93415519  0.11489233     0.08900
H940        H  0.34329193  0.96668727  0.10135642     0.12500
H941        H  0.34283289  0.95199790  0.16759403     0.11200
H942        H  0.38910351  0.48521705  0.17090779     0.12400
H943        H  0.42733193  0.52232785  0.15836369     0.11400
H944        H  0.37399678  0.00026667  0.09086959     0.08500
H945        H  0.40862208  0.54060985  0.08025428     0.11800
H946        H  0.44675924  0.55345098  0.13353462     0.13600
C947        C  0.18566336  0.94899671  0.14401809    -0.01900
C948        C  0.19451592  0.98081417  0.14290340    -0.09900
C949        C  0.17325730  0.50352603  0.13669029    -0.18700
C950        C  0.14205212  0.99510378  0.13168725     0.03700
C951        C  0.13258273  0.96306523  0.13395051     0.17900
C952        C  0.15463363  0.94019733  0.13962045    -0.20100
C953        C  0.10116206  0.95414736  0.13061809    -0.21400
C954        C  0.07898903  0.97632718  0.12488856    -0.19900
C955        C  0.08803808  0.50763571  0.12158579     0.19300
C956        C  0.11989426  0.51733737  0.12460775     0.01400
C957        C  0.12845873  0.54856744  0.11983265    -0.14700
C958        C  0.10627441  0.56922612  0.11241970    -0.12400
C959        C  0.07479892  0.55979364  0.11000738     0.00900
C960        C  0.06562249  0.52916517  0.11484069    -0.24600
H961        H  0.21829175  0.98810539  0.14657458     0.08900
H962        H  0.18177462  0.52753452  0.13625450     0.12500
H963        H  0.14751201  0.91567864  0.14098989     0.11200
H964        H  0.09362881  0.92989470  0.13257875     0.12400
H965        H  0.05478835  0.96873544  0.12254858     0.11400
H966        H  0.15231220  0.55742323  0.12112728     0.08500
H967        H  0.11366786  0.59290243  0.10873661     0.11800
H968        H  0.04126040  0.52179780  0.11274398     0.13600
C969        C  0.18217195  0.87621494  0.21365215    -0.01900
C970        C  0.17206845  0.84751969  0.22109646    -0.09900
C971        C  0.14872733  0.84675300  0.23433277    -0.18700
C972        C  0.13471030  0.87490426  0.24076736     0.03700
C973        C  0.14416853  0.90395468  0.23274069     0.17900
C974        C  0.16764263  0.90436128  0.21926993    -0.20100
C975        C  0.13050236  0.93241865  0.23842177    -0.21400
C976        C  0.10815645  0.93274280  0.25222615    -0.19900
C977        C  0.09903735  0.90462345  0.26073652     0.19300
C978        C  0.11198103  0.87525324  0.25501724     0.01400
C979        C  0.10197297  0.84751514  0.26401144    -0.14700
C980        C  0.08007282  0.84887889  0.27802703    -0.12400
C981        C  0.06752078  0.87780690  0.28369973     0.00900
C982        C  0.07712194  0.90566289  0.27501144    -0.24600
H983        H  0.18244026  0.82535377  0.21677003     0.08900
H984        H  0.14246956  0.82368647  0.23932190     0.12500
H985        H  0.17507917  0.92668597  0.21345618     0.11200
H986        H  0.13738940  0.95463169  0.23227551     0.12400
H987        H  0.09820991  0.95518946  0.25641792     0.11400
H988        H  0.11063858  0.82432852  0.26064224     0.08500
H989        H  0.07304699  0.82705218  0.28454675     0.11800
H990        H  0.06723556  0.92814699  0.27921394     0.13600
C991        C  0.43414277  0.87352731  0.28450355    -0.01900
C992        C  0.42638858  0.90156985  0.27550693    -0.09900
C993        C  0.40429706  0.90172678  0.26159388    -0.18700
C994        C  0.38904500  0.87360352  0.25606805     0.03700
C995        C  0.39683972  0.84512485  0.26523214     0.17900
C996        C  0.41916099  0.84532712  0.27932630    -0.20100
C997        C  0.38235163  0.81665367  0.26023628    -0.21400
C998        C  0.36017607  0.81585451  0.24635414    -0.19900
C999        C  0.35190013  0.84351332  0.23712259     0.19300
C1000       C  0.36627274  0.87279706  0.24184767     0.01400
C1001       C  0.35704437  0.90009795  0.23221022    -0.14700
C1002       C  0.33404681  0.89853758  0.21881815    -0.12400
C1003       C  0.31968202  0.86979883  0.21432298     0.00900
C1004       C  0.32902703  0.84220496  0.22332610    -0.24600
H1005       H  0.43755470  0.92370830  0.27918945     0.08900
H1006       H  0.39983126  0.92434244  0.25544761     0.12500
H1007       H  0.42509347  0.82343443  0.28613585     0.11200
H1008       H  0.38817334  0.79483538  0.26713930     0.12400
H1009       H  0.34931557  0.79345772  0.24286659     0.11400
H1010       H  0.36684926  0.92316391  0.23475744     0.08500
H1011       H  0.32743643  0.92011184  0.21190134     0.11800
H1012       H  0.31787173  0.81988617  0.21993997     0.13600
C1013       C  0.07020151  0.80619842  0.35708353    -0.01900
C1014       C  0.07832070  0.80873810  0.37533787    -0.09900
C1015       C  0.10052818  0.78844462  0.38304636    -0.18700
C1016       C  0.11534370  0.76459291  0.37271638     0.03700
C1017       C  0.10781929  0.76278867  0.35405463     0.17900
C1018       C  0.08552255  0.78352092  0.34644255    -0.20100
C1019       C  0.12218772  0.73995128  0.34314442    -0.21400
C1020       C  0.14357751  0.71849379  0.35040240    -0.19900
C1021       C  0.15091737  0.71917564  0.36878002     0.19300
C1022       C  0.13698349  0.74222887  0.38024312     0.01400
C1023       C  0.14482827  0.74139385  0.39878460    -0.14700
C1024       C  0.16524581  0.71836661  0.40563196    -0.12400
C1025       C  0.17880302  0.69572176  0.39425422     0.00900
C1026       C  0.17177437  0.69651199  0.37580547    -0.24600
H1027       H  0.06718312  0.82635278  0.38383498     0.08900
H1028       H  0.10535368  0.79192441  0.39715784     0.12500
H1029       H  0.07958103  0.78149132  0.33227649     0.11200
H1030       H  0.11665900  0.73851276  0.32890871     0.12400
H1031       H  0.15414283  0.70095063  0.34161191     0.11400
H1032       H  0.13525802  0.75788611  0.40841386     0.08500
H1033       H  0.17043673  0.71830212  0.41992374     0.11800
H1034       H  0.18201791  0.67894275  0.36689398     0.13600
C1035       C  0.32464305  0.69596755  0.39456805    -0.01900
C1036       C  0.34314529  0.71354771  0.40657466    -0.09900
C1037       C  0.36412747  0.73662559  0.40025528    -0.18700
C1038       C  0.36785319  0.74224664  0.38156794     0.03700
C1039       C  0.34965683  0.72357444  0.36944763     0.17900
C1040       C  0.32782914  0.70126672  0.37602795    -0.20100
C1041       C  0.35380781  0.72680662  0.35082685    -0.21400
C1042       C  0.37612826  0.74779078  0.34394079    -0.19900
C1043       C  0.39412152  0.76682296  0.35548218     0.19300
C1044       C  0.38956587  0.76504706  0.37444879     0.01400
C1045       C  0.40689800  0.78623950  0.38542044    -0.14700
C1046       C  0.42868335  0.80737358  0.37791101    -0.12400
C1047       C  0.43432267  0.80774606  0.35933004     0.00900
C1048       C  0.41677413  0.78758186  0.34816431    -0.24600
H1049       H  0.34119498  0.70956690  0.42095387     0.08900
H1050       H  0.37768733  0.74908644  0.41029548     0.12500
H1051       H  0.31402842  0.68718710  0.36667019     0.11200
H1052       H  0.34013813  0.71253204  0.34152072     0.12400
H1053       H  0.37923441  0.74924937  0.32946771     0.11400
H1054       H  0.40394755  0.78723590  0.39982957     0.08500
H1055       H  0.44183013  0.82295846  0.38675931     0.11800
H1056       H  0.42062589  0.78822812  0.33371799     0.13600
C1057       C  0.32592248  0.56153118  0.39384821    -0.01900
C1058       C  0.32450020  0.55530156  0.37531517    -0.09900
C1059       C  0.34494520  0.53362495  0.36731564    -0.18700
C1060       C  0.36780509  0.51733206  0.37763085     0.03700
C1061       C  0.36872740  0.52316146  0.39651918     0.17900
C1062       C  0.34787479  0.54506490  0.40442840    -0.20100
C1063       C  0.39064781  0.00730757  0.40737911    -0.21400
C1064       C  0.41181986  0.98586234  0.39988817    -0.19900
C1065       C  0.41177212  0.97996696  0.38133444     0.19300
C1066       C  0.38985991  0.99562515  0.36988375     0.01400
C1067       C  0.39132146  0.48915134  0.35117123    -0.14700
C1068       C  0.41373976  0.96817082  0.34418406    -0.12400
C1069       C  0.43519889  0.95282317  0.35557214     0.00900
C1070       C  0.43387313  0.95870232  0.37415278    -0.24600
H1071       H  0.30753867  0.56743369  0.36681626     0.08900
H1072       H  0.34224745  0.53027845  0.35302497     0.12500
H1073       H  0.34909482  0.54963696  0.41878426     0.11200
H1074       H  0.39147622  0.01157058  0.42176913     0.12400
H1075       H  0.42855282  0.97399630  0.40865961     0.11400
H1076       H  0.37576755  0.50012830  0.34153478     0.08500
H1077       H  0.41429357  0.96401491  0.32978458     0.11800
H1078       H  0.45050771  0.94709058  0.38310271     0.13600
C1079       C  0.06959153  0.95108778  0.35604109    -0.01900
C1080       C  0.09148389  0.96485491  0.34425284    -0.09900
C1081       C  0.11458727  0.48572579  0.35070337    -0.18700
C1082       C  0.11571791  0.99417987  0.36915843     0.03700
C1083       C  0.09251062  0.98091304  0.38085278     0.17900
C1084       C  0.07035418  0.95899632  0.37431387    -0.20100
C1085       C  0.09110103  0.99004882  0.39894292    -0.21400
C1086       C  0.11204774  0.01243183  0.40569599    -0.19900
C1087       C  0.13563667  0.52541418  0.39469036     0.19300
C1088       C  0.13840543  0.51589450  0.37637831     0.01400
C1089       C  0.16384364  0.52842865  0.36619065    -0.14700
C1090       C  0.18485683  0.55033610  0.37371845    -0.12400
C1091       C  0.18101382  0.56075801  0.39151469     0.00900
C1092       C  0.15647599  0.54794703  0.40194342    -0.24600
H1093       H  0.09089607  0.95917285  0.33002233     0.08900
H1094       H  0.13068226  0.49548301  0.34087958     0.12500
H1095       H  0.05286925  0.94884119  0.38335157     0.11200
H1096       H  0.07327849  0.98023378  0.40786484     0.12400
H1097       H  0.10994165  0.01945032  0.41968916     0.11400
H1098       H  0.16826891  0.52152955  0.35243717     0.08500
H1099       H  0.20383617  0.55965214  0.36542752     0.11800
H1100       H  0.15365893  0.55542859  0.41582789     0.13600
C1101       C  0.24772933  0.94537305  0.53628255    -0.01900
C1102       C  0.22025891  0.96338652  0.53346143    -0.09900
C1103       C  0.21904861  0.98624533  0.51992307    -0.18700
C1104       C  0.24546034  0.99193431  0.50863477     0.03700
C1105       C  0.27350054  0.97406182  0.51178284     0.17900
C1106       C  0.27433955  0.95101410  0.52542109    -0.20100
C1107       C  0.30057936  0.47925670  0.50128656    -0.21400
C1108       C  0.30056002  0.50200775  0.48778111    -0.19900
C1109       C  0.27327839  0.51974116  0.48419637     0.19300
C1110       C  0.24514868  0.51471764  0.49439345     0.01400
C1111       C  0.21792172  0.53250581  0.48973222    -0.14700
C1112       C  0.21876041  0.55442589  0.47565604    -0.12400
C1113       C  0.24676820  0.55976573  0.46598829     0.00900
C1114       C  0.27396451  0.54241751  0.47037480    -0.24600
H1115       H  0.19938713  0.95973494  0.54172515     0.08900
H1116       H  0.19712646  0.99914121  0.51870322     0.12500
H1117       H  0.29576542  0.93732473  0.52750357     0.11200
H1118       H  0.32202731  0.46574483  0.50361069     0.12400
H1119       H  0.32200497  0.50559737  0.47998368     0.11400
H1120       H  0.19554800  0.52987110  0.49658839     0.08500
H1121       H  0.19752012  0.56776385  0.47255486     0.11800
H1122       H  0.29566395  0.54632453  0.46283673     0.13600
C1123       C  0.25195171  0.69368590  0.46696133    -0.01900
C1124       C  0.22288718  0.70610856  0.47274842    -0.09900
C1125       C  0.22155952  0.72851319  0.48651932    -0.18700
C1126       C  0.24945881  0.73917115  0.49517670     0.03700
C1127       C  0.27891135  0.72629235  0.48937910     0.17900
C1128       C  0.27992576  0.70402271  0.47530200    -0.20100
C1129       C  0.30717192  0.73561692  0.49771974    -0.21400
C1130       C  0.30690026  0.75771821  0.51160337    -0.19900
C1131       C  0.27838448  0.77128186  0.51741642     0.19300
C1132       C  0.24921858  0.76216134  0.50931474     0.01400
C1133       C  0.22112770  0.77672444  0.51560111    -0.14700
C1134       C  0.22204057  0.79973624  0.52904897    -0.12400
C1135       C  0.25081697  0.80898001  0.53686421     0.00900
C1136       C  0.27891101  0.79428079  0.53113000    -0.24600
H1137       H  0.20091303  0.69853951  0.46653913     0.08900
H1138       H  0.19827649  0.73684791  0.49011235     0.12500
H1139       H  0.30252030  0.69431538  0.47104592     0.11200
H1140       H  0.32968831  0.72576988  0.49345639     0.12400
H1141       H  0.32921886  0.76447938  0.51772613     0.11400
H1142       H  0.19804565  0.77118857  0.51027647     0.08500
H1143       H  0.19994091  0.81048031  0.53328844     0.11800
H1144       H  0.30134254  0.80121058  0.53707141     0.13600
C1145       C  0.17197428  0.81372915  0.60742356    -0.01900
C1146       C  0.15578167  0.79332797  0.59580553    -0.09900
C1147       C  0.13413055  0.77140522  0.60254306    -0.18700
C1148       C  0.12791669  0.76925968  0.62124772     0.03700
C1149       C  0.14410999  0.79038451  0.63293494     0.17900
C1150       C  0.16597155  0.81213850  0.62597987    -0.20100
C1151       C  0.13836704  0.78976620  0.65150268    -0.21400
C1152       C  0.11693922  0.76836069  0.65879973    -0.19900
C1153       C  0.10095829  0.74689936  0.64771817     0.19300
C1154       C  0.10623355  0.74700080  0.62877515     0.01400
C1155       C  0.08970223  0.72467678  0.61821096    -0.14700
C1156       C  0.06867322  0.70343190  0.62608469    -0.12400
C1157       C  0.06334122  0.70355948  0.64472057     0.00900
C1158       C  0.07967568  0.72529954  0.65548423    -0.24600
H1159       H  0.15986721  0.79425432  0.58140365     0.08900
H1160       H  0.12259860  0.75663372  0.59271839     0.12500
H1161       H  0.17815425  0.82808503  0.63508288     0.11200
H1162       H  0.15053526  0.80596818  0.66045121     0.12400
H1163       H  0.11297492  0.76847532  0.67323020     0.11400
H1164       H  0.09247938  0.72288291  0.60382480     0.08500
H1165       H  0.05642874  0.68680947  0.61743643     0.11800
H1166       H  0.07562234  0.72563293  0.66991291     0.13600
C1167       C  0.31837302  0.80928675  0.61041898    -0.01900
C1168       C  0.31788334  0.80292684  0.62892391    -0.09900
C1169       C  0.33897358  0.78120107  0.63647256    -0.18700
C1170       C  0.36098214  0.76466736  0.62560604     0.03700
C1171       C  0.36005922  0.76990213  0.60668032     0.17900
C1172       C  0.33936799  0.79252772  0.59934336    -0.20100
C1173       C  0.37982604  0.75256766  0.59519882    -0.21400
C1174       C  0.40063966  0.73016792  0.60211144    -0.19900
C1175       C  0.40307689  0.72543369  0.62072068     0.19300
C1176       C  0.38375642  0.74306441  0.63279118     0.01400
C1177       C  0.38877446  0.73896715  0.65150823    -0.14700
C1178       C  0.41190021  0.71812996  0.65789975    -0.12400
C1179       C  0.43003229  0.70013270  0.64591455     0.00900
C1180       C  0.42530779  0.70365910  0.62735482    -0.24600
H1181       H  0.30164987  0.81546324  0.63770173     0.08900
H1182       H  0.33726683  0.77761077  0.65081436     0.12500
H1183       H  0.33940558  0.79694995  0.58494851     0.11200
H1184       H  0.37902225  0.75619809  0.58075133     0.12400
H1185       H  0.41545579  0.71695191  0.59285279     0.11400
H1186       H  0.37586144  0.75219683  0.66151679     0.08500
H1187       H  0.41549578  0.71589721  0.67229616     0.11800
H1188       H  0.43986370  0.69024130  0.61803742     0.13600
C1189       C  0.32341049  0.94305809  0.60881832    -0.01900
C1190       C  0.32477644  0.94694573  0.62755529    -0.09900
C1191       C  0.34505136  0.96903750  0.63529262    -0.18700
C1192       C  0.36483549  0.98818101  0.62448799     0.03700
C1193       C  0.36332774  0.98424548  0.60546412     0.17900
C1194       C  0.34271649  0.96187758  0.59783680    -0.20100
C1195       C  0.38255432  0.50250294  0.59416476    -0.21400
C1196       C  0.40352257  0.52444991  0.60134781    -0.19900
C1197       C  0.40572036  0.52869045  0.61999974     0.19300
C1198       C  0.38627150  0.51081128  0.63186853     0.01400
C1199       C  0.38937177  0.51619695  0.65060278    -0.14700
C1200       C  0.41145276  0.53775611  0.65723666    -0.12400
C1201       C  0.43098881  0.55477934  0.64548224     0.00900
C1202       C  0.42764649  0.55046165  0.62686182    -0.24600
H1203       H  0.31016151  0.93268446  0.63639468     0.08900
H1204       H  0.34472769  0.97035291  0.64978479     0.12500
H1205       H  0.34185686  0.95901880  0.58332501     0.11200
H1206       H  0.38151140  0.49965208  0.57966432     0.12400
H1207       H  0.41827889  0.53807312  0.59224641     0.11400
H1208       H  0.37532579  0.00398375  0.66053293     0.08500
H1209       H  0.41341988  0.54086355  0.67167999     0.11800
H1210       H  0.44262278  0.56361081  0.61763628     0.13600
C1211       C  0.17840902  0.94794694  0.60807938    -0.01900
C1212       C  0.16040280  0.96570332  0.59590022    -0.09900
C1213       C  0.13946757  0.98899310  0.60200729    -0.18700
C1214       C  0.13518168  0.99458602  0.62065120     0.03700
C1215       C  0.15315987  0.97601398  0.63293593     0.17900
C1216       C  0.17511504  0.95362919  0.62656728    -0.20100
C1217       C  0.14838070  0.97914287  0.65150949    -0.21400
C1218       C  0.12539709  0.99961258  0.65817326    -0.19900
C1219       C  0.10746953  0.51839088  0.64647124     0.19300
C1220       C  0.11290345  0.51704092  0.62757233     0.01400
C1221       C  0.09573204  0.53818523  0.61648322    -0.14700
C1222       C  0.07318372  0.55875432  0.62380973    -0.12400
C1223       C  0.06658560  0.55853059  0.64230494     0.00900
C1224       C  0.08402236  0.53847223  0.65357602    -0.24600
H1225       H  0.16253618  0.96152079  0.58154737     0.08900
H1226       H  0.12616974  0.00145518  0.59185019     0.12500
H1227       H  0.18860616  0.93951146  0.63604965     0.11200
H1228       H  0.16190174  0.96499086  0.66094337     0.12400
H1229       H  0.12167554  0.50082605  0.67260631     0.11400
H1230       H  0.09943049  0.53957643  0.60213424     0.08500
H1231       H  0.06025331  0.57437981  0.61488499     0.11800
H1232       H  0.07952505  0.53874182  0.66796589     0.13600
C1233       C  0.17971456  0.61605269  0.78813468    -0.01900
C1234       C  0.16721480  0.58749852  0.78174585    -0.09900
C1235       C  0.14527538  0.58723400  0.76758859    -0.18700
C1236       C  0.13500824  0.61573789  0.75942632     0.03700
C1237       C  0.14719750  0.64459793  0.76635358     0.17900
C1238       C  0.16929499  0.64446729  0.78043812    -0.20100
C1239       C  0.13741066  0.67356089  0.75916463    -0.21400
C1240       C  0.11551444  0.67461731  0.74523612    -0.19900
C1241       C  0.10316400  0.64672270  0.73798217     0.19300
C1242       C  0.11300145  0.61681579  0.74476949     0.01400
C1243       C  0.10042900  0.58942122  0.73652132    -0.14700
C1244       C  0.07847079  0.59172519  0.72249337    -0.12400
C1245       C  0.06810896  0.62128823  0.71629174     0.00900
C1246       C  0.08082547  0.64867139  0.72401211    -0.24600
H1247       H  0.17485714  0.56522206  0.78747868     0.08900
H1248       H  0.13678704  0.56439021  0.76335205     0.12500
H1249       H  0.17854293  0.66675940  0.78538698     0.11200
H1250       H  0.14664299  0.69561980  0.76442739     0.12400
H1251       H  0.10823326  0.69745249  0.74007159     0.11400
H1252       H  0.10707506  0.56589783  0.74060031     0.08500
H1253       H  0.06906686  0.57015212  0.71672297     0.11800
H1254       H  0.07322514  0.67164377  0.71918087     0.13600
C1255       C  0.43216367  0.62814081  0.71770732    -0.01900
C1256       C  0.41693341  0.59962367  0.72179108    -0.09900
C1257       C  0.39339620  0.59821330  0.73500085    -0.18700
C1258       C  0.38448325  0.62541211  0.74487834     0.03700
C1259       C  0.40018744  0.65431733  0.74081881     0.17900
C1260       C  0.42347322  0.65551649  0.72719387    -0.20100
C1261       C  0.39274869  0.68175562  0.75050155    -0.21400
C1262       C  0.37009279  0.68113221  0.76416745    -0.19900
C1263       C  0.35400132  0.65312830  0.76840390     0.19300
C1264       C  0.36081299  0.62490214  0.75872507     0.01400
C1265       C  0.34359185  0.59738573  0.76332986    -0.14700
C1266       C  0.32087233  0.59780159  0.77699975    -0.12400
C1267       C  0.31433065  0.62552627  0.78666049     0.00900
C1268       C  0.33106239  0.65318450  0.78224969    -0.24600
H1269       H  0.42309514  0.57819153  0.71460623     0.08900
H1270       H  0.38289903  0.57534672  0.73725837     0.12500
H1271       H  0.43532060  0.67767361  0.72422571     0.11200
H1272       H  0.40468728  0.70385676  0.74755502     0.12400
H1273       H  0.36505413  0.70276216  0.77144644     0.11400
H1274       H  0.34694532  0.57511344  0.75657525     0.08500
H1275       H  0.30830596  0.57608662  0.77999146     0.11800
H1276       H  0.32615042  0.67485170  0.78953093     0.13600
C1277       C  0.50367320  0.94019346  0.96678562    -0.01900
C1278       C  0.03280252  0.95278819  0.97233226    -0.09900
C1279       C  0.03418061  0.97583766  0.98577612    -0.18700
C1280       C  0.50625078  0.98722057  0.99411729     0.03700
C1281       C  0.47669182  0.97507544  0.98801365     0.17900
C1282       C  0.47568858  0.95171242  0.97459582    -0.20100
C1283       C  0.44825653  0.98618857  0.99538679    -0.21400
C1284       C  0.44847921  0.50907085  0.00879959    -0.19900
C1285       C  0.47715601  0.52105500  0.01536624     0.19300
C1286       C  0.50651333  0.51017042  0.00825511     0.01400
C1287       C  0.03477467  0.52247041  0.01578630    -0.14700
C1288       C  0.03383135  0.54480892  0.02963752    -0.12400
C1289       C  0.00482072  0.55586290  0.03630912     0.00900
C1290       C  0.47658430  0.54382703  0.02909982    -0.24600
H1291       H  0.05477365  0.94447458  0.96643014     0.08900
H1292       H  0.05746383  0.98428493  0.98930285     0.12500
H1293       H  0.45297026  0.94243910  0.97024418     0.11200
H1294       H  0.42565214  0.97713992  0.99072796     0.12400
H1295       H  0.42603810  0.51724961  0.01419542     0.11400
H1296       H  0.05798572  0.51515466  0.01137923     0.08500
H1297       H  0.05597030  0.55379731  0.03497721     0.11800
H1298       H  0.45399044  0.55203528  0.03429674     0.13600
C1299       C  0.99163897  0.80468842  0.96721906    -0.01900
C1300       C  0.46294353  0.79643988  0.97541202    -0.09900
C1301       C  0.46216369  0.77385530  0.98911248    -0.18700
C1302       C  0.99023648  0.75854958  0.99488095     0.03700
C1303       C  0.01911705  0.76644448  0.98606143     0.17900
C1304       C  0.01958264  0.78948083  0.97253130    -0.20100
C1305       C  0.04743519  0.75139615  0.99080170    -0.21400
C1306       C  0.04780370  0.72864465  0.00425429    -0.19900
C1307       C  0.01994597  0.72074326  0.01344180     0.19300
C1308       C  0.99075821  0.73567708  0.00900304     0.01400
C1309       C  0.46348923  0.72721207  0.01900390    -0.14700
C1310       C  0.46513629  0.70462979  0.03265366    -0.12400
C1311       C  0.99387828  0.68969520  0.03675008     0.00900
C1312       C  0.02119112  0.69795317  0.02710523    -0.24600
H1313       H  0.44108535  0.80796556  0.97146393     0.08900
H1314       H  0.43923471  0.76888362  0.99485894     0.12500
H1315       H  0.04183233  0.79551445  0.96603116     0.11200
H1316       H  0.06946054  0.75722920  0.98403090     0.12400
H1317       H  0.07009757  0.71731719  0.00759119     0.11400
H1318       H  0.44056942  0.73768981  0.01669660     0.08500
H1319       H  0.44367772  0.69868093  0.03994006     0.11800
H1320       H  0.04359552  0.68663125  0.03023684     0.13600
C1321       C  0.17806265  0.69070611  0.85974900    -0.01900
C1322       C  0.17173252  0.68939875  0.87827667    -0.09900
C1323       C  0.14911492  0.70913475  0.88606552    -0.18700
C1324       C  0.13218724  0.73121699  0.87552918     0.03700
C1325       C  0.13786177  0.73158572  0.85661945     0.17900
C1326       C  0.16042030  0.71127312  0.84892756    -0.20100
C1327       C  0.12165280  0.75284804  0.84553778    -0.21400
C1328       C  0.10057464  0.77449263  0.85287949    -0.19900
C1329       C  0.09517116  0.77533816  0.87147120     0.19300
C1330       C  0.11049994  0.75347548  0.88308938     0.01400
C1331       C  0.10402597  0.75545916  0.90178402    -0.14700
C1332       C  0.08396792  0.77881003  0.90863789    -0.12400
C1333       C  0.06956787  0.80068809  0.89711832     0.00900
C1334       C  0.07492408  0.79844372  0.87852525    -0.24600
H1335       H  0.18468825  0.67331058  0.88691561     0.08900
H1336       H  0.14589802  0.70688215  0.90040678     0.12500
H1337       H  0.16498980  0.71227104  0.83455725     0.11200
H1338       H  0.12573828  0.75313221  0.83111842     0.12400
H1339       H  0.08878326  0.79103665  0.84397219     0.11400
H1340       H  0.11438523  0.73963456  0.91150400     0.08500
H1341       H  0.07996220  0.77989350  0.92304279     0.11800
H1342       H  0.06379782  0.81519339  0.86945512     0.13600
C1343       C  0.31336945  0.69736349  0.85915691    -0.01900
C1344       C  0.30684897  0.72971180  0.85768414    -0.09900
C1345       C  0.32817466  0.75223975  0.86411619    -0.18700
C1346       C  0.35725583  0.74313563  0.87202506     0.03700
C1347       C  0.36458852  0.71033171  0.87263425     0.17900
C1348       C  0.34235487  0.68776858  0.86663161    -0.20100
C1349       C  0.39413970  0.70035834  0.87910458    -0.21400
C1350       C  0.41656491  0.72226971  0.88497082    -0.19900
C1351       C  0.40953198  0.75463159  0.88523349     0.19300
C1352       C  0.37942353  0.76543508  0.87916306     0.01400
C1353       C  0.37246601  0.79799746  0.88095755    -0.14700
C1354       C  0.39458140  0.81891919  0.88825588    -0.12400
C1355       C  0.42457366  0.80839090  0.89353371     0.00900
C1356       C  0.43212805  0.77627221  0.89186778    -0.24600
H1357       H  0.28477589  0.73769726  0.85176580     0.08900
H1358       H  0.32146139  0.77663297  0.86239772     0.14100
H1359       H  0.34785485  0.66276710  0.86743627     0.11200
H1360       H  0.40009653  0.67544468  0.87944010     0.12400
H1361       H  0.43933524  0.71377915  0.88969719     0.11400
H1362       H  0.34980544  0.80789126  0.87732757     0.08500
H1363       H  0.38833726  0.84365534  0.88962084     0.11800
H1364       H  0.45519960  0.76803087  0.89629008     0.13600
C1365       C  0.31916207  0.55063281  0.85823929    -0.01900
C1366       C  0.33872685  0.53367377  0.84649470    -0.09900
C1367       C  0.36137137  0.51273914  0.85316376    -0.18700
C1368       C  0.36500062  0.50793997  0.87192317     0.03700
C1369       C  0.34541371  0.02566894  0.88377671     0.17900
C1370       C  0.32300269  0.54686951  0.87688028    -0.20100
C1371       C  0.34783517  0.02171839  0.90244400    -0.21400
C1372       C  0.36900650  0.00000739  0.90964982    -0.19900
C1373       C  0.38837145  0.98189715  0.89835614     0.19300
C1374       C  0.38691105  0.98583036  0.87933408     0.01400
C1375       C  0.40716689  0.96714615  0.86855066    -0.14700
C1376       C  0.42741114  0.94504405  0.87628693    -0.12400
C1377       C  0.42831974  0.94080057  0.89498826     0.00900
C1378       C  0.40896152  0.95955428  0.90597661    -0.24600
H1379       H  0.33628223  0.53626359  0.83204281     0.08900
H1380       H  0.37527707  0.50038908  0.84324145     0.12500
H1381       H  0.30797807  0.55993208  0.88611358     0.11200
H1382       H  0.33296289  0.03523679  0.91153103     0.12400
H1383       H  0.37007672  0.99720092  0.92415254     0.11400
H1384       H  0.40786637  0.46880649  0.85408384     0.08500
H1385       H  0.44224630  0.93095687  0.86747850     0.11800
H1386       H  0.40954105  0.95645891  0.92047669     0.13600
C1387       C  0.18642776  0.54709414  0.86261544    -0.01900
C1388       C  0.19723459  0.51741194  0.86813229    -0.09900
C1389       C  0.17633515  0.99530905  0.87549793    -0.18700
C1390       C  0.14356009  0.50196868  0.87705466     0.03700
C1391       C  0.13257327  0.53182091  0.87082046     0.17900
C1392       C  0.15417377  0.55442793  0.86420173    -0.20100
C1393       C  0.10004535  0.53852203  0.87077361    -0.21400
C1394       C  0.07811301  0.51590130  0.87634516    -0.19900
C1395       C  0.08822602  0.98655203  0.88290503     0.19300
C1396       C  0.12119432  0.97967784  0.88399326     0.01400
C1397       C  0.13036491  0.95088774  0.89211242    -0.14700
C1398       C  0.10774997  0.92932055  0.89819601    -0.12400
C1399       C  0.07528905  0.93532826  0.89614415     0.00900
C1400       C  0.06562273  0.96407330  0.88852830    -0.24600
H1401       H  0.22211100  0.51137516  0.86683086     0.08900
H1402       H  0.18636549  0.97283323  0.87927275     0.12500
H1403       H  0.14576948  0.57727739  0.85960985     0.11200
H1404       H  0.09144442  0.56111910  0.86593655     0.12400
H1405       H  0.05306640  0.52153071  0.87568965     0.11400
H1406       H  0.15484939  0.94462947  0.89426741     0.08500
H1407       H  0.11577297  0.90749456  0.90432306     0.11800
H1408       H  0.04051400  0.96922328  0.88735327     0.13600
O1409       O  0.95001627  0.41210115  0.91956139    -0.82400
C1410       C  0.54955511  0.32639903  0.90427795     0.97000
O1411       O  0.53583194  0.34469690  0.89337975    -0.71500
O1412       O  0.97447417  0.33427487  0.89420546    -0.75100
Al1413     Al  0.49983751  0.37153375  0.89572356     1.49000
C1414       C  0.94729341  0.33123981  0.90113774     0.92200
O1415       O  0.96868354  0.33632415  0.94430529    -0.81300
O1416       O  0.52715902  0.40752587  0.94445083    -0.74900
Al1417     Al  0.96166971  0.37403074  0.93117706     1.90100
O1418       O  0.51854774  0.34450466  0.95120169    -0.73900
O1419       O  0.55957548  0.39369023  0.91536800    -0.73800
O1420       O  0.54682242  0.33055660  0.92101383    -0.79400
O1421       O  0.52535504  0.40885859  0.89486262    -0.77600
O1422       O  0.49876156  0.37161193  0.91968841    -1.13800
O1423       O  0.96407932  0.39821028  0.89233527    -0.73000
C1424       C  0.94868354  0.41600628  0.90276701     0.97800
C1425       C  0.49291352  0.32969562  0.95347239     0.94100
Al1426     Al  0.53493259  0.36927857  0.93199748     1.55600
O1427       O  0.93858371  0.34868200  0.91407905    -0.77600
C1428       C  0.55200123  0.41166676  0.90247385     0.98300
C1429       C  0.00247935  0.41471458  0.95313471     0.93200
O1430       O  0.97681245  0.39995290  0.95052295    -0.82900
O1431       O  0.70789752  0.16984288  0.83522018    -0.82400
C1432       C  0.79380301  0.07117949  0.85120367     0.97000
O1433       O  0.77680846  0.08638897  0.86215002    -0.71500
O1434       O  0.78709437  0.14746549  0.86010233    -0.75100
Al1435     Al  0.74971434  0.12196367  0.85957570     1.49000
C1436       C  0.78975423  0.17415184  0.85264134     0.92200
O1437       O  0.78396528  0.14973830  0.81016212    -0.81300
O1438       O  0.71085736  0.09243228  0.81140296    -0.74900
Al1439     Al  0.74607599  0.15776134  0.82346108     1.90100
O1440       O  0.77438557  0.10001010  0.80391088    -0.73900
O1441       O  0.72539273  0.06137497  0.84124281    -0.73800
O1442       O  0.78857855  0.07271741  0.83451431    -0.79400
O1443       O  0.71257244  0.09661785  0.86171117    -0.77600
O1444       O  0.74847669  0.12146805  0.83556822    -1.13800
O1445       O  0.72268015  0.15751134  0.86259553    -0.73000
C1446       C  0.70398278  0.17153870  0.85204212     0.97800
C1447       C  0.78975476  0.12519349  0.80104662     0.94100
Al1448     Al  0.74967891  0.08476408  0.82377073     1.55600
O1449       O  0.77157389  0.18184957  0.83984690    -0.77600
C1450       C  0.70897204  0.06972899  0.85468169     0.98300
C1451       C  0.70461877  0.11672132  0.80219097     0.93200
O1452       O  0.72007162  0.14194816  0.80451916    -0.82900
O1453       O  0.80106414  0.41439816  0.58426965    -0.82400
C1454       C  0.69453548  0.33721443  0.60026851     0.97000
O1455       O  0.71078432  0.35342435  0.61107972    -0.71500
O1456       O  0.77145305  0.34003904  0.61024127    -0.75100
Al1457     Al  0.74815160  0.37808876  0.60844515     1.49000
C1458       C  0.79772223  0.33412618  0.60284645     0.92200
O1459       O  0.77619066  0.34023091  0.55933313    -0.81300
O1460       O  0.72318098  0.41472907  0.55898440    -0.74900
Al1461     Al  0.78608798  0.37732908  0.57256715     1.90100
O1462       O  0.72654342  0.35068019  0.55320108    -0.73900
O1463       O  0.69058148  0.40595489  0.58817061    -0.73800
O1464       O  0.69701979  0.34140766  0.58354903    -0.79400
O1465       O  0.72477690  0.41630376  0.60964172    -0.77600
O1466       O  0.74895300  0.37783968  0.58430968    -1.13800
O1467       O  0.78519631  0.40276152  0.61152542    -0.73000
C1468       C  0.80208951  0.41898208  0.60103534     0.97800
C1469       C  0.75127197  0.33449921  0.55057538     0.94100
Al1470     Al  0.71255722  0.37813776  0.57204125     1.55600
O1471       O  0.80706559  0.34989964  0.58937294    -0.77600
C1472       C  0.69917198  0.42226174  0.60156896     0.98300
C1473       C  0.74812438  0.42036992  0.55026979     0.93200
O1474       O  0.77300831  0.40451304  0.55316846    -0.82900
O1475       O  0.53647043  0.17943082  0.66937972    -0.82400
C1476       C  0.95564592  0.07610397  0.65258124     0.97000
O1477       O  0.97183878  0.09250442  0.64183103    -0.71500
O1478       O  0.95999264  0.15307353  0.64441381    -0.75100
Al1479     Al  0.49760987  0.12896766  0.64491676     1.49000
C1480       C  0.95491553  0.17868862  0.65259135     0.92200
O1481       O  0.96378833  0.15430709  0.69573765    -0.81300
O1482       O  0.53611803  0.09919302  0.69338862    -0.74900
Al1483     Al  0.00000610  0.16417918  0.68164597     1.90100
O1484       O  0.97219061  0.10381896  0.70001473    -0.73900
O1485       O  0.52551430  0.06957004  0.66329384    -0.73800
O1486       O  0.96097155  0.07718401  0.66922052    -0.79400
O1487       O  0.53528309  0.10507312  0.64245634    -0.77600
O1488       O  0.49879980  0.12800563  0.66907814    -1.13800
O1489       O  0.52290446  0.16552597  0.64211304    -0.73000
C1490       C  0.53990050  0.18161757  0.65257283     0.97800
C1491       C  0.95733783  0.12888272  0.70375326     0.94100
Al1492     Al  0.49870165  0.09076143  0.68046212     1.55600
O1493       O  0.97152218  0.18667876  0.66603350    -0.77600
C1494       C  0.54129330  0.07888775  0.64979186     0.98300
C1495       C  0.54315379  0.12342115  0.70233530     0.93200
O1496       O  0.52847371  0.14910197  0.69987251    -0.82900
O1497       O  0.80357761  0.09019678  0.41847904    -0.82400
C1498       C  0.69973502  0.17083028  0.40153000     0.97000
O1499       O  0.71640369  0.15476569  0.39085484    -0.71500
O1500       O  0.77738413  0.16588326  0.39305862    -0.75100
Al1501     Al  0.75264393  0.12862770  0.39393788     1.49000
C1502       C  0.80301144  0.17115320  0.40125312     0.92200
O1503       O  0.77817362  0.16311518  0.44451184    -0.81300
O1504       O  0.72324583  0.09080742  0.44302003    -0.74900
Al1505     Al  0.78825501  0.12682790  0.43057543     1.90100
O1506       O  0.72760058  0.15442192  0.44896831    -0.73900
O1507       O  0.69309459  0.10103813  0.41272618    -0.73800
O1508       O  0.70044115  0.16537239  0.41818201    -0.79400
O1509       O  0.72820374  0.09135702  0.39164964    -0.77600
O1510       O  0.75180624  0.12774767  0.41812365    -1.13800
O1511       O  0.78882651  0.10277295  0.39120312    -0.73000
C1512       C  0.80498173  0.08592390  0.40170182     0.97800
C1513       C  0.75269783  0.16924935  0.45267611     0.94100
Al1514     Al  0.71445496  0.12788680  0.42966314     1.55600
O1515       O  0.81080996  0.15492505  0.41484221    -0.77600
C1516       C  0.70198884  0.08549439  0.39908010     0.98300
C1517       C  0.74791588  0.08422489  0.45180455     0.93200
O1518       O  0.77351625  0.09883359  0.44894612    -0.82900
O1519       O  0.96423212  0.42928288  0.33156077    -0.82400
C1520       C  0.54499358  0.32653292  0.34950200     0.97000
O1521       O  0.52899631  0.34360397  0.36000868    -0.71500
O1522       O  0.53955131  0.40413272  0.35769481    -0.75100
Al1523     Al  0.00237614  0.37926589  0.35677265     1.49000
C1524       C  0.54498677  0.42945365  0.34933766     0.92200
O1525       O  0.53802709  0.40381199  0.30652410    -0.81300
O1526       O  0.96437789  0.34958367  0.30790465    -0.74900
Al1527     Al  0.50133825  0.41405679  0.31994659     1.90100
O1528       O  0.52841134  0.35358285  0.30187318    -0.73900
O1529       O  0.97460565  0.31950546  0.33808834    -0.73800
O1530       O  0.53916671  0.32633950  0.33286043    -0.79400
O1531       O  0.96517498  0.35457080  0.35915917    -0.77600
O1532       O  0.50182403  0.37795656  0.33261847    -1.13800
O1533       O  0.97604858  0.41531362  0.35910492    -0.73000
C1534       C  0.95956549  0.43124993  0.34828420     0.97800
C1535       C  0.54356824  0.37848814  0.29820202     0.94100
Al1536     Al  0.00168988  0.34058798  0.32122132     1.55600
O1537       O  0.52893102  0.43702782  0.33566988    -0.77600
C1538       C  0.95913112  0.32849763  0.35172215     0.98300
C1539       C  0.95865430  0.37400310  0.29876641     0.93200
O1540       O  0.97414408  0.39907505  0.30139777    -0.82900
O1541       O  0.54798937  0.16238695  0.08383613    -0.82400
C1542       C  0.94916755  0.07686205  0.09966046     0.97000
O1543       O  0.96370185  0.09397866  0.11082817    -0.71500
O1544       O  0.52464391  0.08456165  0.10935684    -0.75100
Al1545     Al  0.49917846  0.12139974  0.10840209     1.49000
C1546       C  0.55178595  0.08216651  0.10242384     0.92200
O1547       O  0.52816340  0.08628561  0.05973634    -0.81300
O1548       O  0.97109311  0.15913526  0.06009720    -0.74900
Al1549     Al  0.53603967  0.12427342  0.07249871     1.90100
O1550       O  0.97850140  0.09588124  0.05284320    -0.73900
O1551       O  0.93922233  0.14612710  0.08917673    -0.73800
O1552       O  0.95042321  0.08273037  0.08306853    -0.79400
O1553       O  0.97370306  0.15797301  0.11019897    -0.77600
O1554       O  0.49933038  0.12227513  0.08440325    -1.13800
O1555       O  0.53477053  0.14874063  0.11134464    -0.73000
C1556       C  0.54979122  0.16644022  0.10062236     0.97800
C1557       C  0.50381365  0.08044446  0.05044448     0.94100
Al1558     Al  0.96286202  0.12104389  0.07233493     1.55600
O1559       O  0.55995074  0.09962030  0.08941776    -0.77600
C1560       C  0.94753155  0.16278129  0.10249605     0.98300
C1561       C  0.49529625  0.16505084  0.05077177     0.93200
O1562       O  0.52058869  0.14957665  0.05303909    -0.82900
O1563       O  0.71255574  0.32170298  0.16772295    -0.82400
C1564       C  0.79432610  0.42255809  0.15026774     0.97000
O1565       O  0.77472771  0.40931068  0.13987189    -0.71500
O1566       O  0.78493194  0.34838005  0.13987994    -0.75100
Al1567     Al  0.74809736  0.37343536  0.14288339     1.49000
C1568       C  0.79172812  0.32310650  0.14802341     0.92200
O1569       O  0.78805525  0.34491618  0.19187633    -0.81300
O1570       O  0.71512632  0.40129188  0.19187580    -0.74900
Al1571     Al  0.75031543  0.33618801  0.17883975     1.90100
O1572       O  0.77853101  0.39437859  0.19815855    -0.73900
O1573       O  0.72819544  0.43350837  0.16247120    -0.73800
O1574       O  0.79132219  0.42047097  0.16713674    -0.79400
O1575       O  0.71044642  0.39851244  0.14321109    -0.77600
O1576       O  0.75056008  0.37272959  0.16691163    -1.13800
O1577       O  0.72172350  0.33768865  0.14024999    -0.73000
C1578       C  0.70656000  0.32074698  0.15114434     0.97800
C1579       C  0.79418456  0.36949262  0.20072360     0.94100
Al1580     Al  0.75306744  0.40923533  0.17890921     1.55600
O1581       O  0.77702833  0.31472785  0.16207956    -0.77600
C1582       C  0.70894576  0.42557471  0.15029845     0.98300
C1583       C  0.70824499  0.37631386  0.20034672     0.93200
O1584       O  0.72367114  0.35105166  0.19778536    -0.82900
C1585       C  0.57061023  0.19115657  0.10798639    -0.01900
C1586       C  0.56725116  0.20077167  0.12591791    -0.09900
C1587       C  0.58815861  0.22253742  0.13344572    -0.18700
C1588       C  0.61348506  0.23518073  0.12324734     0.03700
C1589       C  0.61651712  0.22557167  0.10495576     0.17900
C1590       C  0.59502685  0.20395672  0.09749563    -0.20100
C1591       C  0.64123733  0.23721980  0.09427967    -0.21400
C1592       C  0.66311392  0.25833146  0.10137371    -0.19900
C1593       C  0.66079974  0.26820805  0.11931663     0.19300
C1594       C  0.63604302  0.25674890  0.13056468     0.01400
C1595       C  0.63518783  0.26715418  0.14868952    -0.14700
C1596       C  0.65807499  0.28786731  0.15534621    -0.12400
C1597       C  0.68217595  0.29916184  0.14414616     0.00900
C1598       C  0.68332998  0.28936531  0.12612870    -0.24600
H1599       H  0.54841251  0.19126533  0.13424705     0.08900
H1600       H  0.58395544  0.22870074  0.14731534     0.12500
H1601       H  0.59787854  0.19641163  0.08362298     0.11200
H1602       H  0.64372575  0.22988028  0.08035777     0.12400
H1603       H  0.68205005  0.26691139  0.09278295     0.11400
H1604       H  0.61731742  0.25962651  0.15812602     0.08500
H1605       H  0.65676879  0.29526695  0.16930060     0.11800
H1606       H  0.70220401  0.29781064  0.11743110     0.13600
C1607       C  0.81701753  0.30260336  0.14112764    -0.01900
C1608       C  0.84006262  0.29109257  0.15292505    -0.09900
C1609       C  0.86300727  0.26979569  0.14696033    -0.18700
C1610       C  0.86295048  0.25859917  0.12899726     0.03700
C1611       C  0.83923753  0.27034598  0.11711063     0.17900
C1612       C  0.81701800  0.29272976  0.12315391    -0.20100
C1613       C  0.83726369  0.25898127  0.09944358    -0.21400
C1614       C  0.85794489  0.23568233  0.09339482    -0.19900
C1615       C  0.88158468  0.22370789  0.10472893     0.19300
C1616       C  0.88492243  0.23550614  0.12256489     0.01400
C1617       C  0.91001347  0.22351837  0.13319880    -0.14700
C1618       C  0.93032769  0.20023874  0.12656631    -0.12400
C1619       C  0.92624897  0.18791108  0.10922360     0.00900
C1620       C  0.90190624  0.19989808  0.09833290    -0.24600
H1621       H  0.84020282  0.29855384  0.16689350     0.08900
H1622       H  0.87981751  0.26184296  0.15689366     0.12500
H1623       H  0.79876873  0.30137057  0.11411430     0.11200
H1624       H  0.81918179  0.26771744  0.09034719     0.12400
H1625       H  0.85542504  0.22695611  0.07974095     0.11400
H1626       H  0.91475723  0.23177052  0.14665944     0.08500
H1627       H  0.94913495  0.19156037  0.13518152     0.11800
H1628       H  0.89892745  0.19087146  0.08476245     0.13600
C1629       C  0.82017013  0.44128614  0.14231110    -0.01900
C1630       C  0.82137115  0.44539900  0.12361031    -0.09900
C1631       C  0.84423237  0.46462084  0.11579031    -0.18700
C1632       C  0.86671414  0.48064062  0.12650838     0.03700
C1633       C  0.86647482  0.47508542  0.14541089     0.17900
C1634       C  0.84327674  0.45554751  0.15312780    -0.20100
C1635       C  0.88887266  0.98969080  0.15653024    -0.21400
C1636       C  0.91068189  0.01085908  0.14937129    -0.19900
C1637       C  0.91033523  0.01808583  0.13097543     0.19300
C1638       C  0.88875093  0.00266520  0.11920473     0.01400
C1639       C  0.88933765  0.01087673  0.10073501    -0.14700
C1640       C  0.90953359  0.03437249  0.09440297    -0.12400
C1641       C  0.92984313  0.05030227  0.10618563     0.00900
C1642       C  0.93074990  0.04148088  0.12436950    -0.24600
H1643       H  0.80413535  0.43415557  0.11489230     0.08900
H1644       H  0.84329154  0.46668777  0.10135635     0.12500
H1645       H  0.84283310  0.45199770  0.16759396     0.11200
H1646       H  0.88910398  0.98521641  0.17090766     0.12400
H1647       H  0.92733228  0.02232727  0.15836354     0.11400
H1648       H  0.87399632  0.50026709  0.09086955     0.08500
H1649       H  0.90862164  0.04061038  0.08025426     0.11800
H1650       H  0.94675939  0.05345071  0.13353452     0.13600
C1651       C  0.68566345  0.44899670  0.14401793    -0.01900
C1652       C  0.69451645  0.48081399  0.14290264    -0.09900
C1653       C  0.67325767  0.00352578  0.13668961    -0.18700
C1654       C  0.64205238  0.49510379  0.13168695     0.03700
C1655       C  0.63258264  0.46306545  0.13395080     0.17900
C1656       C  0.65463345  0.44019754  0.13962080    -0.20100
C1657       C  0.60116172  0.45414785  0.13061890    -0.21400
C1658       C  0.57898876  0.47632773  0.12488937    -0.19900
C1659       C  0.58803804  0.00763580  0.12158592     0.19300
C1660       C  0.61989441  0.01733722  0.12460742     0.01400
C1661       C  0.62845908  0.04856704  0.11983188    -0.14700
C1662       C  0.60627471  0.06922572  0.11241898    -0.12400
C1663       C  0.57479902  0.05979355  0.11000714     0.00900
C1664       C  0.56562245  0.02916531  0.11484086    -0.24600
H1665       H  0.71829241  0.48810499  0.14657341     0.08900
H1666       H  0.68177524  0.02753421  0.13625344     0.12500
H1667       H  0.64751155  0.41567894  0.14099070     0.11200
H1668       H  0.59362824  0.42989539  0.13257999     0.12400
H1669       H  0.55478783  0.46873620  0.12254982     0.11400
H1670       H  0.65231264  0.05742258  0.12112612     0.08500
H1671       H  0.61366834  0.09290191  0.10873554     0.11800
H1672       H  0.54126017  0.02179814  0.11274452     0.13600
C1673       C  0.68217195  0.37621484  0.21365207    -0.01900
C1674       C  0.67206836  0.34751958  0.22109633    -0.09900
C1675       C  0.64872722  0.34675289  0.23433263    -0.18700
C1676       C  0.63471027  0.37490416  0.24076728     0.03700
C1677       C  0.64416861  0.40395459  0.23274066     0.17900
C1678       C  0.66764270  0.40436119  0.21926989    -0.20100
C1679       C  0.63050254  0.43241857  0.23842180    -0.21400
C1680       C  0.60815666  0.43274272  0.25222618    -0.19900
C1681       C  0.59903744  0.40462337  0.26073650     0.19300
C1682       C  0.61198100  0.37525313  0.25501715     0.01400
C1683       C  0.60197281  0.34751502  0.26401129    -0.14700
C1684       C  0.58007270  0.34887874  0.27802689    -0.12400
C1685       C  0.56752078  0.37780678  0.28369966     0.00900
C1686       C  0.57712205  0.40566278  0.27501142    -0.24600
H1687       H  0.68244010  0.32535366  0.21676987     0.08900
H1688       H  0.64246939  0.32368633  0.23932175     0.12500
H1689       H  0.67507929  0.42668591  0.21345617     0.11200
H1690       H  0.63738964  0.45463163  0.23227556     0.12400
H1691       H  0.59821016  0.45518947  0.25641802     0.11400
H1692       H  0.61063836  0.32432830  0.26064202     0.08500
H1693       H  0.57304681  0.32705204  0.28454658     0.11800
H1694       H  0.56723574  0.42814695  0.27921398     0.13600
C1695       C  0.93414264  0.37352740  0.28450358    -0.01900
C1696       C  0.92638811  0.40156997  0.27550711    -0.09900
C1697       C  0.90429657  0.40172690  0.26159407    -0.18700
C1698       C  0.88904486  0.37360353  0.25606807     0.03700
C1699       C  0.89683986  0.34512482  0.26523203     0.17900
C1700       C  0.91916112  0.34532714  0.27932619    -0.20100
C1701       C  0.88235204  0.31665356  0.26023605    -0.21400
C1702       C  0.86017647  0.31585438  0.24635391    -0.19900
C1703       C  0.85190027  0.34351323  0.23712247     0.19300
C1704       C  0.86627265  0.37279704  0.24184766     0.01400
C1705       C  0.85704414  0.40009793  0.23221027    -0.14700
C1706       C  0.83404663  0.39853756  0.21881819    -0.12400
C1707       C  0.81968200  0.36979878  0.21432293     0.00900
C1708       C  0.82902719  0.34220486  0.22332596    -0.24600
H1709       H  0.93755400  0.42370858  0.27918976     0.08900
H1710       H  0.89983047  0.42434255  0.25544795     0.12500
H1711       H  0.92509384  0.32343437  0.28613566     0.11200
H1712       H  0.88817396  0.29483523  0.26713897     0.12400
H1713       H  0.84931618  0.29345750  0.24286625     0.11400
H1714       H  0.86684892  0.42316400  0.23475756     0.08500
H1715       H  0.82743613  0.42011188  0.21190144     0.11800
H1716       H  0.81787204  0.31988603  0.21993975     0.13600
C1717       C  0.57020162  0.30619855  0.35708353    -0.01900
C1718       C  0.57832083  0.30873827  0.37533785    -0.09900
C1719       C  0.60052835  0.28844484  0.38304636    -0.18700
C1720       C  0.61534389  0.26459313  0.37271635     0.03700
C1721       C  0.60781949  0.26278889  0.35405462     0.17900
C1722       C  0.58552268  0.28352107  0.34644254    -0.20100
C1723       C  0.62218799  0.23995155  0.34314440    -0.21400
C1724       C  0.64357779  0.21849409  0.35040238    -0.19900
C1725       C  0.65091757  0.21917587  0.36878000     0.19300
C1726       C  0.63698366  0.24222909  0.38024311     0.01400
C1727       C  0.64482837  0.24139401  0.39878459    -0.14700
C1728       C  0.66524586  0.21836674  0.40563197    -0.12400
C1729       C  0.67880310  0.19572190  0.39425422     0.00900
C1730       C  0.67177452  0.19651219  0.37580546    -0.24600
H1731       H  0.56718322  0.32635296  0.38383497     0.08900
H1732       H  0.60535386  0.29192464  0.39715776     0.12500
H1733       H  0.57958113  0.28149143  0.33227650     0.11200
H1734       H  0.61665931  0.23851306  0.32890869     0.12400
H1735       H  0.65414318  0.20095093  0.34161185     0.11400
H1736       H  0.63525810  0.25788630  0.40841387     0.08500
H1737       H  0.67043673  0.21830223  0.41992373     0.11800
H1738       H  0.68201807  0.17894292  0.36689396     0.13600
C1739       C  0.82464315  0.19596750  0.39456806    -0.01900
C1740       C  0.84314533  0.21354773  0.40657467    -0.09900
C1741       C  0.86412750  0.23662562  0.40025529    -0.18700
C1742       C  0.86785327  0.24224661  0.38156794     0.03700
C1743       C  0.84965696  0.22357436  0.36944763     0.17900
C1744       C  0.82782926  0.20126664  0.37602795    -0.20100
C1745       C  0.85380801  0.22680646  0.35082686    -0.21400
C1746       C  0.87612846  0.24779060  0.34394077    -0.19900
C1747       C  0.89412165  0.26682286  0.35548217     0.19300
C1748       C  0.88956593  0.26504703  0.37444878     0.01400
C1749       C  0.90689797  0.28623956  0.38542042    -0.14700
C1750       C  0.92868330  0.30737366  0.37791098    -0.12400
C1751       C  0.93432267  0.30774607  0.35933002     0.00900
C1752       C  0.91677423  0.28758177  0.34816429    -0.24600
H1753       H  0.84119495  0.20956700  0.42095389     0.08900
H1754       H  0.87768728  0.24908648  0.41029546     0.12500
H1755       H  0.81402855  0.18718700  0.36667020     0.11200
H1756       H  0.84013836  0.21253178  0.34152070     0.12400
H1757       H  0.87923466  0.24924912  0.32946775     0.11400
H1758       H  0.90394747  0.28723604  0.39982953     0.08500
H1759       H  0.94183000  0.32295859  0.38675927     0.11800
H1760       H  0.92062604  0.28822797  0.33371800     0.13600
C1761       C  0.82592235  0.06153106  0.39384823    -0.01900
C1762       C  0.82450013  0.05530149  0.37531519    -0.09900
C1763       C  0.84494512  0.03362488  0.36731567    -0.18700
C1764       C  0.86780495  0.01733194  0.37763088     0.03700
C1765       C  0.86872718  0.02316126  0.39651924     0.17900
C1766       C  0.84787457  0.04506470  0.40442843    -0.20100
C1767       C  0.89064749  0.50730727  0.40737915    -0.21400
C1768       C  0.91181954  0.48586202  0.39988822    -0.19900
C1769       C  0.91177186  0.47996671  0.38133448     0.19300
C1770       C  0.88985973  0.49562497  0.36988377     0.01400
C1771       C  0.89132147  0.98915136  0.35117126    -0.14700
C1772       C  0.91373970  0.46817077  0.34418409    -0.12400
C1773       C  0.93519876  0.45282307  0.35557218     0.00900
C1774       C  0.93387288  0.45870208  0.37415283    -0.24600
H1775       H  0.80753865  0.06743369  0.36681626     0.08900
H1776       H  0.84224742  0.03027840  0.35302495     0.12500
H1777       H  0.84909454  0.04963676  0.41878438     0.11200
H1778       H  0.89147586  0.51157024  0.42176917     0.12400
H1779       H  0.92855241  0.47399598  0.40865964     0.11400
H1780       H  0.87576766  0.00012842  0.34153480     0.08500
H1781       H  0.91429359  0.46401496  0.32978462     0.11800
H1782       H  0.95050740  0.44709028  0.38310276     0.13600
C1783       C  0.56959162  0.45108773  0.35604105    -0.01900
C1784       C  0.59148446  0.46485430  0.34425288    -0.09900
C1785       C  0.61458737  0.98572574  0.35070337    -0.18700
C1786       C  0.61571804  0.49417976  0.36915842     0.03700
C1787       C  0.59251026  0.48091350  0.38085267     0.17900
C1788       C  0.57035378  0.45899682  0.37431376    -0.20100
C1789       C  0.59110021  0.49004981  0.39894272    -0.21400
C1790       C  0.61204699  0.51243277  0.40569577    -0.19900
C1791       C  0.63563680  0.02541408  0.39469037     0.19300
C1792       C  0.63840552  0.01589445  0.37637832     0.01400
C1793       C  0.66384366  0.02842873  0.36619063    -0.14700
C1794       C  0.68485680  0.05033623  0.37371845    -0.12400
C1795       C  0.68101383  0.06075808  0.39151470     0.00900
C1796       C  0.65647608  0.04794698  0.40194344    -0.24600
H1797       H  0.59089700  0.45917183  0.33002242     0.08900
H1798       H  0.63068228  0.99548296  0.34087960     0.12500
H1799       H  0.55286849  0.44884217  0.38335137     0.11200
H1800       H  0.57327736  0.48023527  0.40786452     0.12400
H1801       H  0.60994054  0.51945168  0.41968889     0.11400
H1802       H  0.66826886  0.02152977  0.35243721     0.08500
H1803       H  0.70383607  0.05965239  0.36542748     0.11800
H1804       H  0.65365904  0.05542849  0.41582790     0.13600
C1805       C  0.74772955  0.44537308  0.53628249    -0.01900
C1806       C  0.72025909  0.46338644  0.53346132    -0.09900
C1807       C  0.71904875  0.48624524  0.51992297    -0.18700
C1808       C  0.74546054  0.49193434  0.50863472     0.03700
C1809       C  0.77350080  0.47406199  0.51178284     0.17900
C1810       C  0.77433982  0.45101426  0.52542109    -0.20100
C1811       C  0.80057951  0.97925676  0.50128654    -0.21400
C1812       C  0.80056019  0.00200786  0.48778111    -0.19900
C1813       C  0.77327852  0.01974122  0.48419636     0.19300
C1814       C  0.74514880  0.01471764  0.49439343     0.01400
C1815       C  0.71792180  0.03250575  0.48973218    -0.14700
C1816       C  0.71876049  0.05442582  0.47565601    -0.12400
C1817       C  0.74676827  0.05976576  0.46598829     0.00900
C1818       C  0.77396459  0.04241759  0.47037481    -0.24600
H1819       H  0.69938724  0.45973478  0.54172503     0.08900
H1820       H  0.69712658  0.49914100  0.51870307     0.12500
H1821       H  0.79576577  0.43732496  0.52750362     0.11200
H1822       H  0.82202746  0.96574489  0.50361067     0.12400
H1823       H  0.82200517  0.00559756  0.47998372     0.11400
H1824       H  0.69554812  0.02987096  0.49658833     0.08500
H1825       H  0.69752008  0.06776378  0.47255481     0.11800
H1826       H  0.79566411  0.04632468  0.46283672     0.13600
C1827       C  0.75195177  0.19368598  0.46696132    -0.01900
C1828       C  0.72288725  0.20610869  0.47274839    -0.09900
C1829       C  0.72155958  0.22851329  0.48651931    -0.18700
C1830       C  0.74945888  0.23917114  0.49517674     0.03700
C1831       C  0.77891142  0.22629229  0.48937914     0.17900
C1832       C  0.77992581  0.20402271  0.47530202    -0.20100
C1833       C  0.80717195  0.23561674  0.49771985    -0.21400
C1834       C  0.80690032  0.25771797  0.51160349    -0.19900
C1835       C  0.77838456  0.27128174  0.51741650     0.19300
C1836       C  0.74921866  0.26216130  0.50931480     0.01400
C1837       C  0.72112779  0.27672447  0.51560113    -0.14700
C1838       C  0.72204070  0.29973632  0.52904896    -0.12400
C1839       C  0.75081709  0.30898002  0.53686423     0.00900
C1840       C  0.77891112  0.29428070  0.53113006    -0.24600
H1841       H  0.70091306  0.19853970  0.46653907     0.08900
H1842       H  0.69827666  0.23684799  0.49011232     0.12500
H1843       H  0.80252042  0.19431530  0.47104595     0.11200
H1844       H  0.82968847  0.22576955  0.49345651     0.12400
H1845       H  0.82921891  0.26447904  0.51772631     0.11400
H1846       H  0.69804581  0.27118867  0.51027649     0.08500
H1847       H  0.69994100  0.31048051  0.53328840     0.11800
H1848       H  0.80134261  0.30121044  0.53707149     0.13600
C1849       C  0.67197421  0.31372927  0.60742342    -0.01900
C1850       C  0.65578163  0.29332808  0.59580539    -0.09900
C1851       C  0.63413054  0.27140532  0.60254293    -0.18700
C1852       C  0.62791668  0.26925974  0.62124758     0.03700
C1853       C  0.64410994  0.29038461  0.63293480     0.17900
C1854       C  0.66597148  0.31213861  0.62597974    -0.20100
C1855       C  0.63836694  0.28976631  0.65150253    -0.21400
C1856       C  0.61693916  0.26836078  0.65879959    -0.19900
C1857       C  0.60095832  0.24689939  0.64771803     0.19300
C1858       C  0.60623359  0.24700083  0.62877501     0.01400
C1859       C  0.58970233  0.22467676  0.61821084    -0.14700
C1860       C  0.56867335  0.20343183  0.62608457    -0.12400
C1861       C  0.56334135  0.20355944  0.64472045     0.00900
C1862       C  0.57967577  0.22529953  0.65548410    -0.24600
H1863       H  0.65986717  0.29425444  0.58140351     0.08900
H1864       H  0.62259852  0.25663374  0.59271821     0.12500
H1865       H  0.67815418  0.32808513  0.63508275     0.11200
H1866       H  0.65053513  0.30596836  0.66045108     0.12400
H1867       H  0.61297484  0.26847543  0.67323005     0.11400
H1868       H  0.59247951  0.22288288  0.60382465     0.08500
H1869       H  0.55642897  0.18680944  0.61743635     0.11800
H1870       H  0.57562242  0.22563293  0.66991279     0.13600
C1871       C  0.81837301  0.30928682  0.61041903    -0.01900
C1872       C  0.81788340  0.30292696  0.62892396    -0.09900
C1873       C  0.83897365  0.28120122  0.63647262    -0.18700
C1874       C  0.86098216  0.26466743  0.62560609     0.03700
C1875       C  0.86005915  0.26990213  0.60668037     0.17900
C1876       C  0.83936793  0.29252771  0.59934343    -0.20100
C1877       C  0.87982588  0.25256756  0.59519885    -0.21400
C1878       C  0.90063948  0.23016779  0.60211146    -0.19900
C1879       C  0.90307678  0.22543362  0.62072071     0.19300
C1880       C  0.88375643  0.24306445  0.63279121     0.01400
C1881       C  0.88877455  0.23896728  0.65150826    -0.14700
C1882       C  0.91190028  0.21813003  0.65789977    -0.12400
C1883       C  0.93003223  0.20013266  0.64591457     0.00900
C1884       C  0.92530766  0.20365898  0.62735483    -0.24600
H1885       H  0.80164989  0.31546346  0.63770183     0.08900
H1886       H  0.83726694  0.27761096  0.65081441     0.12500
H1887       H  0.83940548  0.29694990  0.58494854     0.11200
H1888       H  0.87902203  0.25619794  0.58075139     0.12400
H1889       H  0.91545555  0.21695171  0.59285281     0.11400
H1890       H  0.87586172  0.25219700  0.66151676     0.08500
H1891       H  0.91549594  0.21589737  0.67229619     0.11800
H1892       H  0.93986345  0.19024114  0.61803745     0.13600
C1893       C  0.82341058  0.44305805  0.60881833    -0.01900
C1894       C  0.82477654  0.44694567  0.62755529    -0.09900
C1895       C  0.84505148  0.46903739  0.63529264    -0.18700
C1896       C  0.86483561  0.48818091  0.62448801     0.03700
C1897       C  0.86332792  0.48424535  0.60546415     0.17900
C1898       C  0.84271664  0.46187750  0.59783682    -0.20100
C1899       C  0.88255434  0.00250286  0.59416473    -0.21400
C1900       C  0.90352260  0.02444979  0.60134781    -0.19900
C1901       C  0.90572039  0.02869030  0.61999974     0.19300
C1902       C  0.88627150  0.01081111  0.63186852     0.01400
C1903       C  0.88937181  0.01619672  0.65060276    -0.14700
C1904       C  0.91145278  0.03775589  0.65723666    -0.12400
C1905       C  0.93098883  0.05477916  0.64548225     0.00900
C1906       C  0.92764651  0.05046147  0.62686185    -0.24600
H1907       H  0.81016160  0.43268437  0.63639470     0.08900
H1908       H  0.84472783  0.47035274  0.64978481     0.12500
H1909       H  0.84185703  0.45901871  0.58332502     0.11200
H1910       H  0.88151139  0.99965207  0.57966435     0.12400
H1911       H  0.91827894  0.03807305  0.59224640     0.11400
H1912       H  0.87532550  0.50398396  0.66053295     0.08500
H1913       H  0.91341989  0.04086333  0.67168000     0.11800
H1914       H  0.94262284  0.06361070  0.61763627     0.13600
C1915       C  0.67840904  0.44794707  0.60807926    -0.01900
C1916       C  0.66040302  0.46570364  0.59590010    -0.09900
C1917       C  0.63946778  0.48899342  0.60200719    -0.18700
C1918       C  0.63518169  0.49458612  0.62065111     0.03700
C1919       C  0.65315970  0.47601389  0.63293583     0.17900
C1920       C  0.67511487  0.45362912  0.62656717    -0.20100
C1921       C  0.64838037  0.47914260  0.65150939    -0.21400
C1922       C  0.62539675  0.49961230  0.65817316    -0.19900
C1923       C  0.60746958  0.01839081  0.64647119     0.19300
C1924       C  0.61290365  0.01704099  0.62757229     0.01400
C1925       C  0.59573244  0.03818547  0.61648321    -0.14700
C1926       C  0.57318414  0.05875455  0.62380971    -0.12400
C1927       C  0.56658582  0.05853064  0.64230489     0.00900
C1928       C  0.58402240  0.03847214  0.65357596    -0.24600
H1929       H  0.66253653  0.46152125  0.58154724     0.08900
H1930       H  0.62617012  0.50145564  0.59185011     0.12500
H1931       H  0.68860584  0.43951122  0.63604955     0.11200
H1932       H  0.66190131  0.46499046  0.66094326     0.12400
H1933       H  0.62167536  0.00082580  0.67260628     0.11400
H1934       H  0.59943110  0.03957684  0.60213418     0.08500
H1935       H  0.56025387  0.07438023  0.61488497     0.11800
H1936       H  0.57952494  0.03874158  0.66796583     0.13600
C1937       C  0.67971452  0.11605254  0.78813476    -0.01900
C1938       C  0.66721476  0.08749839  0.78174592    -0.09900
C1939       C  0.64527537  0.08723387  0.76758865    -0.18700
C1940       C  0.63500821  0.11573777  0.75942639     0.03700
C1941       C  0.64719743  0.14459779  0.76635366     0.17900
C1942       C  0.66929492  0.14446716  0.78043822    -0.20100
C1943       C  0.63741057  0.17356076  0.75916473    -0.21400
C1944       C  0.61551442  0.17461720  0.74523620    -0.19900
C1945       C  0.60316403  0.14672260  0.73798221     0.19300
C1946       C  0.61300145  0.11681568  0.74476954     0.01400
C1947       C  0.60042903  0.08942113  0.73652136    -0.14700
C1948       C  0.57847087  0.09172511  0.72249337    -0.12400
C1949       C  0.56810909  0.12128816  0.71629172     0.00900
C1950       C  0.58082558  0.14867130  0.72401211    -0.24600
H1951       H  0.67485710  0.06522187  0.78747877     0.08900
H1952       H  0.63678706  0.06439009  0.76335210     0.12500
H1953       H  0.67854281  0.16675922  0.78538708     0.11200
H1954       H  0.64664285  0.19561965  0.76442752     0.12400
H1955       H  0.60823323  0.19745242  0.74007168     0.11400
H1956       H  0.60707505  0.06589774  0.74060036     0.08500
H1957       H  0.56906694  0.07015208  0.71672297     0.11800
H1958       H  0.57322529  0.17164372  0.71918086     0.13600
C1959       C  0.93216368  0.12814078  0.71770738    -0.01900
C1960       C  0.91693344  0.09962367  0.72179115    -0.09900
C1961       C  0.89339624  0.09821329  0.73500092    -0.18700
C1962       C  0.88448326  0.12541214  0.74487838     0.03700
C1963       C  0.90018741  0.15431732  0.74081884     0.17900
C1964       C  0.92347322  0.15551652  0.72719391    -0.20100
C1965       C  0.89274864  0.18175565  0.75050158    -0.21400
C1966       C  0.87009273  0.18113223  0.76416747    -0.19900
C1967       C  0.85400127  0.15312833  0.76840394     0.19300
C1968       C  0.86081298  0.12490213  0.75872511     0.01400
C1969       C  0.84359184  0.09738574  0.76332989    -0.14700
C1970       C  0.82087231  0.09780156  0.77699978    -0.12400
C1971       C  0.81433063  0.12552626  0.78666052     0.00900
C1972       C  0.83106234  0.15318449  0.78224972    -0.24600
H1973       H  0.92309520  0.07819141  0.71460628     0.08900
H1974       H  0.88289912  0.07534676  0.73725847     0.12500
H1975       H  0.93532051  0.17767347  0.72422576     0.11200
H1976       H  0.90468720  0.20385671  0.74755505     0.12400
H1977       H  0.86505404  0.20276225  0.77144646     0.11400
H1978       H  0.84694528  0.07511343  0.75657525     0.08500
H1979       H  0.80830596  0.07608667  0.77999146     0.11800
H1980       H  0.82615035  0.17485175  0.78953098     0.13600
C1981       C  0.00367308  0.44019350  0.96678555    -0.01900
C1982       C  0.53280245  0.45278844  0.97233211    -0.09900
C1983       C  0.53418056  0.47583794  0.98577594    -0.18700
C1984       C  0.00625070  0.48722058  0.99411725     0.03700
C1985       C  0.97669173  0.47507541  0.98801365     0.17900
C1986       C  0.97568849  0.45171240  0.97459581    -0.20100
C1987       C  0.94825644  0.48618851  0.99538682    -0.21400
C1988       C  0.94847921  0.00907134  0.00879932    -0.19900
C1989       C  0.97715601  0.02105522  0.01536612     0.19300
C1990       C  0.00651332  0.01017037  0.00825515     0.01400
C1991       C  0.53477471  0.02247051  0.01578632    -0.14700
C1992       C  0.53383132  0.04480905  0.02963752    -0.12400
C1993       C  0.50482068  0.05586301  0.03630909     0.00900
C1994       C  0.97658428  0.04382726  0.02909971    -0.24600
H1995       H  0.55477359  0.44447499  0.96642986     0.08900
H1996       H  0.55746383  0.48428545  0.98930257     0.12500
H1997       H  0.95297009  0.44243899  0.97024420     0.11200
H1998       H  0.92565209  0.47713987  0.99072802     0.12400
H1999       H  0.92603811  0.01725032  0.01419504     0.11400
H2000       H  0.55798577  0.01515480  0.01137926     0.08500
H2001       H  0.55597029  0.05379749  0.03497723     0.11800
H2002       H  0.95399046  0.05203569  0.03429651     0.13600
C2003       C  0.49163879  0.30468844  0.96721908    -0.01900
C2004       C  0.96294357  0.29644002  0.97541210    -0.09900
C2005       C  0.96216376  0.27385546  0.98911256    -0.18700
C2006       C  0.49023625  0.25854965  0.99488100     0.03700
C2007       C  0.51911682  0.26644453  0.98606147     0.17900
C2008       C  0.51958243  0.28948083  0.97253132    -0.20100
C2009       C  0.54743498  0.25139623  0.99080175    -0.21400
C2010       C  0.54780347  0.22864478  0.00425436    -0.19900
C2011       C  0.51994574  0.22074337  0.01344187     0.19300
C2012       C  0.49075796  0.23567718  0.00900310     0.01400
C2013       C  0.96348940  0.22721213  0.01900396    -0.14700
C2014       C  0.96513646  0.20462990  0.03265373    -0.12400
C2015       C  0.49387801  0.18969531  0.03675013     0.00900
C2016       C  0.52119086  0.19795331  0.02710531    -0.24600
H2017       H  0.94108539  0.30796598  0.97146413     0.08900
H2018       H  0.93923470  0.26888398  0.99485919     0.12500
H2019       H  0.54183212  0.29551440  0.96603117     0.11200
H2020       H  0.56946025  0.25722927  0.98403097     0.12400
H2021       H  0.57009740  0.21731734  0.00759129     0.11400
H2022       H  0.94056944  0.23769011  0.01669672     0.08500
H2023       H  0.94367798  0.19868120  0.03994023     0.11800
H2024       H  0.54359533  0.18663141  0.03023695     0.13600
C2025       C  0.67806260  0.19070602  0.85974903    -0.01900
C2026       C  0.67173239  0.18939862  0.87827668    -0.09900
C2027       C  0.64911478  0.20913462  0.88606553    -0.18700
C2028       C  0.63218715  0.23121691  0.87552919     0.03700
C2029       C  0.63786173  0.23158566  0.85661946     0.17900
C2030       C  0.66042028  0.21127306  0.84892758    -0.20100
C2031       C  0.62165282  0.25284804  0.84553778    -0.21400
C2032       C  0.60057464  0.27449263  0.85287949    -0.19900
C2033       C  0.59517109  0.27533811  0.87147119     0.19300
C2034       C  0.61049983  0.25347539  0.88308937     0.01400
C2035       C  0.60402584  0.25545907  0.90178401    -0.14700
C2036       C  0.58396780  0.27880993  0.90863788    -0.12400
C2037       C  0.56956778  0.30068802  0.89711831     0.00900
C2038       C  0.57492402  0.29844367  0.87852525    -0.24600
H2039       H  0.68468808  0.17331039  0.88691563     0.08900
H2040       H  0.64589781  0.20688198  0.90040678     0.12500
H2041       H  0.66498984  0.21227101  0.83455728     0.11200
H2042       H  0.62573833  0.25313224  0.83111843     0.12400
H2043       H  0.58878333  0.29103667  0.84397221     0.11400
H2044       H  0.61438512  0.23963446  0.91150400     0.08500
H2045       H  0.57996206  0.27989341  0.92304278     0.11800
H2046       H  0.56379779  0.31519337  0.86945512     0.13600
C2047       C  0.81336935  0.19736350  0.85915697    -0.01900
C2048       C  0.80684883  0.22971179  0.85768424    -0.09900
C2049       C  0.82817449  0.25223974  0.86411626    -0.18700
C2050       C  0.85725571  0.24313566  0.87202511     0.03700
C2051       C  0.86458841  0.21033175  0.87263429     0.17900
C2052       C  0.84235478  0.18776862  0.86663166    -0.20100
C2053       C  0.89413961  0.20035835  0.87910461    -0.21400
C2054       C  0.91656482  0.22226974  0.88497083    -0.19900
C2055       C  0.90953189  0.25463161  0.88523349     0.19300
C2056       C  0.87942341  0.26543511  0.87916309     0.01400
C2057       C  0.87246593  0.29799748  0.88095756    -0.14700
C2058       C  0.89458133  0.31891920  0.88825587    -0.12400
C2059       C  0.92457360  0.30839091  0.89353369     0.00900
C2060       C  0.93212798  0.27627222  0.89186776    -0.24600
H2061       H  0.78477563  0.23769724  0.85176591     0.08900
H2062       H  0.82146115  0.27663310  0.86239782     0.14100
H2063       H  0.84785475  0.16276715  0.86743633     0.11200
H2064       H  0.90009641  0.17544481  0.87944013     0.12400
H2065       H  0.93933518  0.21377917  0.88969719     0.11400
H2066       H  0.84980524  0.30789133  0.87732756     0.08500
H2067       H  0.88833722  0.34365537  0.88962082     0.11800
H2068       H  0.95519955  0.26803088  0.89629005     0.13600
C2069       C  0.81916207  0.05063271  0.85823930    -0.01900
C2070       C  0.83872662  0.03367345  0.84649471    -0.09900
C2071       C  0.86137111  0.01273875  0.85316376    -0.18700
C2072       C  0.86500053  0.00793978  0.87192318     0.03700
C2073       C  0.84541396  0.52566918  0.88377670     0.17900
C2074       C  0.82300284  0.04686957  0.87688031    -0.20100
C2075       C  0.84783571  0.52171888  0.90244397    -0.21400
C2076       C  0.86900701  0.50000788  0.90964980    -0.19900
C2077       C  0.88837174  0.48189741  0.89835611     0.19300
C2078       C  0.88691110  0.48583039  0.87933404     0.01400
C2079       C  0.90716678  0.46714601  0.86855061    -0.14700
C2080       C  0.92741102  0.44504394  0.87628690    -0.12400
C2081       C  0.92831978  0.44080060  0.89498823     0.00900
C2082       C  0.90896179  0.45955455  0.90597659    -0.24600
H2083       H  0.83628188  0.03626311  0.83204281     0.08900
H2084       H  0.87527654  0.00038856  0.84324149     0.12500
H2085       H  0.80797849  0.05993224  0.88611356     0.11200
H2086       H  0.83296358  0.53523755  0.91153106     0.12400
H2087       H  0.87007743  0.49720158  0.92415250     0.11400
H2088       H  0.90786591  0.96880590  0.85408385     0.08500
H2089       H  0.94224610  0.43095657  0.86747842     0.11800
H2090       H  0.90954150  0.45645934  0.92047666     0.13600
C2091       C  0.68642786  0.04709409  0.86261548    -0.01900
C2092       C  0.69723474  0.01741200  0.86813247    -0.09900
C2093       C  0.67633520  0.49530914  0.87549826    -0.18700
C2094       C  0.64356018  0.00196866  0.87705468     0.03700
C2095       C  0.63257333  0.03182078  0.87082034     0.17900
C2096       C  0.65417383  0.05442779  0.86420160    -0.20100
C2097       C  0.60004540  0.03852181  0.87077334    -0.21400
C2098       C  0.57811306  0.01590108  0.87634491    -0.19900
C2099       C  0.58822605  0.48655198  0.88290514     0.19300
C2100       C  0.62119433  0.47967787  0.88399345     0.01400
C2101       C  0.63036495  0.45088779  0.89211265    -0.14700
C2102       C  0.60774997  0.42932057  0.89819620    -0.12400
C2103       C  0.57528905  0.43532824  0.89614425     0.00900
C2104       C  0.56562273  0.46407323  0.88852836    -0.24600
H2105       H  0.72211118  0.01137530  0.86683117     0.08900
H2106       H  0.68636558  0.47283342  0.87927318     0.12500
H2107       H  0.64576952  0.07727714  0.85960960     0.11200
H2108       H  0.59144446  0.06111877  0.86593618     0.12400
H2109       H  0.55306646  0.02153041  0.87568932     0.11400
H2110       H  0.65484927  0.44462959  0.89426770     0.08500
H2111       H  0.61577294  0.40749466  0.90432327     0.11800
H2112       H  0.54051409  0.46922315  0.88735325     0.13600
O2113       O  0.95001640  0.91210123  0.91956145    -0.82400
C2114       C  0.54955490  0.82639882  0.90427789     0.97000
O2115       O  0.53583163  0.84469658  0.89337968    -0.71500
O2116       O  0.97447457  0.83427506  0.89420550    -0.75100
Al2117     Al  0.49983728  0.87153351  0.89572351     1.49000
C2118       C  0.94729379  0.83123994  0.90113776     0.92200
O2119       O  0.96868382  0.83632427  0.94430536    -0.81300
O2120       O  0.52715901  0.90752573  0.94445075    -0.74900
Al2121     Al  0.96166993  0.87403084  0.93117712     1.90100
O2122       O  0.51854767  0.84450453  0.95120161    -0.73900
O2123       O  0.55957537  0.89368999  0.91536790    -0.73800
O2124       O  0.54682227  0.83055645  0.92101377    -0.79400
O2125       O  0.52535492  0.90885827  0.89486249    -0.77600
O2126       O  0.49876143  0.87161179  0.91968837    -1.13800
O2127       O  0.96407956  0.89821044  0.89233534    -0.73000
C2128       C  0.94868369  0.91600638  0.90276708     0.97800
C2129       C  0.49291345  0.82969549  0.95347233     0.94100
Al2130     Al  0.53493249  0.86927841  0.93199740     1.55600
O2131       O  0.93858403  0.84868205  0.91407909    -0.77600
C2132       C  0.55200114  0.91166641  0.90247370     0.98300
C2133       C  0.00247948  0.91471474  0.95313481     0.93200
O2134       O  0.97681260  0.89995305  0.95052303    -0.82900
O2135       O  0.70789788  0.66984322  0.83522018    -0.82400
C2136       C  0.79380307  0.57117961  0.85120367     0.97000
O2137       O  0.77680857  0.58638913  0.86215003    -0.71500
O2138       O  0.78709472  0.64746562  0.86010230    -0.75100
Al2139     Al  0.74971459  0.62196393  0.85957570     1.49000
C2140       C  0.78975466  0.67415196  0.85264128     0.92200
O2141       O  0.78396554  0.64973834  0.81016211    -0.81300
O2142       O  0.71085738  0.59243262  0.81140303    -0.74900
Al2143     Al  0.74607631  0.65776154  0.82346107     1.90100
O2144       O  0.77438564  0.60001017  0.80391088    -0.73900
O2145       O  0.72539268  0.56137528  0.84124288    -0.73800
O2146       O  0.78857856  0.57271751  0.83451432    -0.79400
O2147       O  0.71257258  0.59661826  0.86171122    -0.77600
O2148       O  0.74847688  0.62146827  0.83556823    -1.13800
O2149       O  0.72268053  0.65751172  0.86259553    -0.73000
C2150       C  0.70398315  0.67153906  0.85204212     0.97800
C2151       C  0.78975492  0.62519351  0.80104662     0.94100
Al2152     Al  0.74967894  0.58476428  0.82377077     1.55600
O2153       O  0.77157430  0.68184972  0.83984686    -0.77600
C2154       C  0.70897204  0.56972939  0.85468177     0.98300
C2155       C  0.70461894  0.61672163  0.80219099     0.93200
O2156       O  0.72007190  0.64194841  0.80451915    -0.82900
O2157       O  0.80106435  0.91439811  0.58426964    -0.82400
C2158       C  0.69453572  0.83721431  0.60026848     0.97000
O2159       O  0.71078454  0.85342428  0.61107967    -0.71500
O2160       O  0.77145321  0.84003897  0.61024122    -0.75100
Al2161     Al  0.74815179  0.87808869  0.60844511     1.49000
C2162       C  0.79772238  0.83412609  0.60284640     0.92200
O2163       O  0.77619090  0.84023087  0.55933309    -0.81300
O2164       O  0.72318115  0.91472897  0.55898438    -0.74900
Al2165     Al  0.78608820  0.87732903  0.57256713     1.90100
O2166       O  0.72654365  0.85068010  0.55320104    -0.73900
O2167       O  0.69058166  0.90595476  0.58817058    -0.73800
O2168       O  0.69702002  0.84140751  0.58354899    -0.79400
O2169       O  0.72477708  0.91630368  0.60964167    -0.77600
O2170       O  0.74895320  0.87783961  0.58430965    -1.13800
O2171       O  0.78519648  0.90276147  0.61152540    -0.73000
C2172       C  0.80208969  0.91898204  0.60103534     0.97800
C2173       C  0.75127220  0.83449915  0.55057535     0.94100
Al2174     Al  0.71255743  0.87813765  0.57204121     1.55600
O2175       O  0.80706581  0.84989960  0.58937292    -0.77600
C2176       C  0.69917214  0.92226162  0.60156892     0.98300
C2177       C  0.74812456  0.92036986  0.55026978     0.93200
O2178       O  0.77300850  0.90451299  0.55316845    -0.82900
O2179       O  0.53647044  0.67943109  0.66937986    -0.82400
C2180       C  0.95564588  0.57610384  0.65258117     0.97000
O2181       O  0.97183878  0.59250424  0.64183095    -0.71500
O2182       O  0.95999257  0.65307330  0.64441371    -0.75100
Al2183     Al  0.49760983  0.62896793  0.64491692     1.49000
C2184       C  0.95491544  0.67868839  0.65259123     0.92200
O2185       O  0.96378812  0.65430689  0.69573747    -0.81300
O2186       O  0.53611792  0.59919318  0.69338878    -0.74900
Al2187     Al  0.00000595  0.66417902  0.68164587     1.90100
O2188       O  0.97219061  0.60381883  0.70001466    -0.73900
O2189       O  0.52551420  0.56957027  0.66329398    -0.73800
O2190       O  0.96097149  0.57718391  0.66922046    -0.79400
O2191       O  0.53528303  0.60507334  0.64245648    -0.77600
O2192       O  0.49879978  0.62800587  0.66907830    -1.13800
O2193       O  0.52290444  0.66552623  0.64211319    -0.73000
C2194       C  0.53990049  0.68161785  0.65257298     0.97800
C2195       C  0.95733771  0.62888254  0.70375313     0.94100
Al2196     Al  0.49870155  0.59076165  0.68046226     1.55600
O2197       O  0.97152210  0.68667859  0.66603337    -0.77600
C2198       C  0.54129319  0.57888794  0.64979199     0.98300
C2199       C  0.54315373  0.62342132  0.70233545     0.93200
O2200       O  0.52847374  0.64910217  0.69987264    -0.82900
O2201       O  0.80357766  0.59019669  0.41847901    -0.82400
C2202       C  0.69973515  0.67083025  0.40153001     0.97000
O2203       O  0.71640368  0.65476552  0.39085485    -0.71500
O2204       O  0.77738412  0.66588324  0.39305862    -0.75100
Al2205     Al  0.75264403  0.62862763  0.39393789     1.49000
C2206       C  0.80301147  0.67115318  0.40125309     0.92200
O2207       O  0.77817387  0.66311514  0.44451183    -0.81300
O2208       O  0.72324593  0.59080745  0.44302003    -0.74900
Al2209     Al  0.78825516  0.62682785  0.43057541     1.90100
O2210       O  0.72760083  0.65442192  0.44896833    -0.73900
O2211       O  0.69309470  0.60103820  0.41272618    -0.73800
O2212       O  0.70044142  0.66537249  0.41818203    -0.79400
O2213       O  0.72820395  0.59135686  0.39164972    -0.77600
O2214       O  0.75180638  0.62774766  0.41812366    -1.13800
O2215       O  0.78882669  0.60277299  0.39120309    -0.73000
C2216       C  0.80498185  0.58592389  0.40170180     0.97800
C2217       C  0.75269810  0.66924932  0.45267611     0.94100
Al2218     Al  0.71445512  0.62788684  0.42966315     1.55600
O2219       O  0.81081010  0.65492499  0.41484214    -0.77600
C2220       C  0.70198900  0.58549434  0.39908015     0.98300
C2221       C  0.74791596  0.58422488  0.45180454     0.93200
O2222       O  0.77351636  0.59883356  0.44894611    -0.82900
O2223       O  0.96423218  0.92928300  0.33156084    -0.82400
C2224       C  0.54499366  0.82653285  0.34950196     0.97000
O2225       O  0.52899633  0.84360384  0.36000863    -0.71500
O2226       O  0.53955134  0.90413258  0.35769472    -0.75100
Al2227     Al  0.00237614  0.87926598  0.35677273     1.49000
C2228       C  0.54498676  0.92945353  0.34933758     0.92200
O2229       O  0.53802703  0.90381190  0.30652406    -0.81300
O2230       O  0.96437794  0.84958385  0.30790469    -0.74900
Al2231     Al  0.50133819  0.91405665  0.31994654     1.90100
O2232       O  0.52841127  0.85358278  0.30187310    -0.73900
O2233       O  0.97460555  0.81950561  0.33808838    -0.73800
O2234       O  0.53916683  0.82633946  0.33286038    -0.79400
O2235       O  0.96517495  0.85457095  0.35915922    -0.77600
O2236       O  0.50182403  0.87795643  0.33261841    -1.13800
O2237       O  0.97604864  0.91531375  0.35910500    -0.73000
C2238       C  0.95956555  0.93125006  0.34828427     0.97800
C2239       C  0.54356816  0.87848809  0.29820195     0.94100
Al2240     Al  0.00168987  0.84058808  0.32122139     1.55600
O2241       O  0.52893095  0.93702772  0.33566982    -0.77600
C2242       C  0.95913102  0.82849781  0.35172218     0.98300
C2243       C  0.95865444  0.87400326  0.29876643     0.93200
O2244       O  0.97414423  0.89907520  0.30139781    -0.82900
O2245       O  0.54798932  0.66238713  0.08383610    -0.82400
C2246       C  0.94916774  0.57686182  0.09966042     0.97000
O2247       O  0.96370202  0.59397845  0.11082813    -0.71500
O2248       O  0.52464382  0.58456198  0.10935692    -0.75100
Al2249     Al  0.49917833  0.62140003  0.10840210     1.49000
C2250       C  0.55178586  0.58216681  0.10242392     0.92200
O2251       O  0.52816328  0.58628572  0.05973639    -0.81300
O2252       O  0.97109327  0.65913507  0.06009715    -0.74900
Al2253     Al  0.53603958  0.62427357  0.07249873     1.90100
O2254       O  0.97850157  0.59588104  0.05284316    -0.73900
O2255       O  0.93922246  0.64612693  0.08917670    -0.73800
O2256       O  0.95042336  0.58273017  0.08306848    -0.79400
O2257       O  0.97370319  0.65797285  0.11019894    -0.77600
O2258       O  0.49933027  0.62227533  0.08440326    -1.13800
O2259       O  0.53477037  0.64874099  0.11134462    -0.73000
C2260       C  0.54979112  0.66644049  0.10062232     0.97800
C2261       C  0.50381355  0.58044459  0.05044451     0.94100
Al2262     Al  0.96286217  0.62104370  0.07233489     1.55600
O2263       O  0.55995062  0.59962051  0.08941781    -0.77600
C2264       C  0.94753167  0.66278112  0.10249602     0.98300
C2265       C  0.49529620  0.66505093  0.05077176     0.93200
O2266       O  0.52058863  0.64957675  0.05303909    -0.82900
O2267       O  0.71255585  0.82170289  0.16772303    -0.82400
C2268       C  0.79432626  0.92255794  0.15026774     0.97000
O2269       O  0.77472789  0.90931048  0.13987190    -0.71500
O2270       O  0.78493212  0.84837986  0.13988003    -0.75100
Al2271     Al  0.74809754  0.87343519  0.14288344     1.49000
C2272       C  0.79172827  0.82310632  0.14802352     0.92200
O2273       O  0.78805533  0.84491609  0.19187642    -0.81300
O2274       O  0.71512653  0.90129190  0.19187586    -0.74900
Al2275     Al  0.75031553  0.83618793  0.17883984     1.90100
O2276       O  0.77853124  0.89437857  0.19815856    -0.73900
O2277       O  0.72819559  0.93350821  0.16247122    -0.73800
O2278       O  0.79132234  0.92047086  0.16713674    -0.79400
O2279       O  0.71044660  0.89851229  0.14321110    -0.77600
O2280       O  0.75056023  0.87272948  0.16691169    -1.13800
O2281       O  0.72172367  0.83768850  0.14025006    -0.73000
C2282       C  0.70656017  0.82074683  0.15114442     0.97800
C2283       C  0.79418473  0.86949257  0.20072364     0.94100
Al2284     Al  0.75306762  0.90923525  0.17890923     1.55600
O2285       O  0.77702845  0.81472771  0.16207967    -0.77600
C2286       C  0.70894590  0.92557455  0.15029847     0.98300
C2287       C  0.70824516  0.87631392  0.20034679     0.93200
O2288       O  0.72367123  0.85105166  0.19778541    -0.82900
C2289       C  0.57061015  0.69115684  0.10798632    -0.01900
C2290       C  0.56725078  0.70077234  0.12591775    -0.09900
C2291       C  0.58815824  0.72253804  0.13344557    -0.18700
C2292       C  0.61348509  0.73518087  0.12324731     0.03700
C2293       C  0.61651746  0.72557141  0.10495581     0.17900
C2294       C  0.59502714  0.70395654  0.09749567    -0.20100
C2295       C  0.64123803  0.73721908  0.09427983    -0.21400
C2296       C  0.66311467  0.75833064  0.10137389    -0.19900
C2297       C  0.66080022  0.76820761  0.11931673     0.19300
C2298       C  0.63604313  0.75674891  0.13056468     0.01400
C2299       C  0.63518771  0.76715449  0.14868946    -0.14700
C2300       C  0.65807491  0.78786752  0.15534618    -0.12400
C2301       C  0.68217619  0.79916167  0.14414622     0.00900
C2302       C  0.68333049  0.78936479  0.12612882    -0.24600
H2303       H  0.54841180  0.69126630  0.13424683     0.08900
H2304       H  0.58395481  0.72870171  0.14731512     0.12500
H2305       H  0.59787908  0.69641110  0.08362303     0.11200
H2306       H  0.64372667  0.72987924  0.08035795     0.12400
H2307       H  0.68205117  0.76691026  0.09278317     0.11400
H2308       H  0.61731700  0.75962709  0.15812592     0.08500
H2309       H  0.65676851  0.79526743  0.16930050     0.11800
H2310       H  0.70220484  0.79780985  0.11743127     0.13600
C2311       C  0.81701766  0.80260313  0.14112774    -0.01900
C2312       C  0.84006267  0.79109219  0.15292517    -0.09900
C2313       C  0.86300733  0.76979533  0.14696041    -0.18700
C2314       C  0.86295060  0.75859893  0.12899732     0.03700
C2315       C  0.83923768  0.77034584  0.11711069     0.17900
C2316       C  0.81701817  0.79272962  0.12315400    -0.20100
C2317       C  0.83726389  0.75898122  0.09944363    -0.21400
C2318       C  0.85794506  0.73568229  0.09339483    -0.19900
C2319       C  0.88158483  0.72370778  0.10472894     0.19300
C2320       C  0.88492257  0.73550595  0.12256492     0.01400
C2321       C  0.91001360  0.72351815  0.13319882    -0.14700
C2322       C  0.93032781  0.70023850  0.12656631    -0.12400
C2323       C  0.92624908  0.68791090  0.10922359     0.00900
C2324       C  0.90190638  0.69989796  0.09833290    -0.24600
H2325       H  0.84020280  0.79855332  0.16689359     0.08900
H2326       H  0.87981754  0.76184250  0.15689377     0.12500
H2327       H  0.79876894  0.80137049  0.11411437     0.11200
H2328       H  0.81918200  0.76771745  0.09034723     0.12400
H2329       H  0.85542523  0.72695614  0.07974098     0.11400
H2330       H  0.91475738  0.73177028  0.14665945     0.08500
H2331       H  0.94913499  0.69156014  0.13518148     0.11800
H2332       H  0.89892760  0.69087137  0.08476241     0.13600
C2333       C  0.82017027  0.94128599  0.14231110    -0.01900
C2334       C  0.82137131  0.94539881  0.12361030    -0.09900
C2335       C  0.84423247  0.96462073  0.11579030    -0.18700
C2336       C  0.86671414  0.98064064  0.12650839     0.03700
C2337       C  0.86647490  0.97508537  0.14541089     0.17900
C2338       C  0.84327685  0.95554741  0.15312779    -0.20100
C2339       C  0.88887256  0.48969085  0.15653025    -0.21400
C2340       C  0.91068183  0.51085909  0.14937130    -0.19900
C2341       C  0.91033530  0.51808573  0.13097542     0.19300
C2342       C  0.88875106  0.50266503  0.11920470     0.01400
C2343       C  0.88933801  0.51087635  0.10073496    -0.14700
C2344       C  0.90953396  0.53437209  0.09440292    -0.12400
C2345       C  0.92984335  0.55030202  0.10618559     0.00900
C2346       C  0.93074999  0.54148074  0.12436948    -0.24600
H2347       H  0.80413559  0.93415531  0.11489229     0.08900
H2348       H  0.84329169  0.96668758  0.10135641     0.12500
H2349       H  0.84283321  0.95199762  0.16759395     0.11200
H2350       H  0.88910380  0.48521652  0.17090767     0.12400
H2351       H  0.92733219  0.52232732  0.15836356     0.11400
H2352       H  0.87399586  0.00026766  0.09086966     0.08500
H2353       H  0.90862214  0.54060988  0.08025417     0.11800
H2354       H  0.94675945  0.55345066  0.13353454     0.13600
C2355       C  0.68566354  0.94899653  0.14401798    -0.01900
C2356       C  0.69451616  0.98081397  0.14290316    -0.09900
C2357       C  0.67325800  0.50352582  0.13668906    -0.18700
C2358       C  0.64205234  0.99510354  0.13168702     0.03700
C2359       C  0.63258290  0.96306501  0.13395039     0.17900
C2360       C  0.65463379  0.94019717  0.13962038    -0.20100
C2361       C  0.60116221  0.95414716  0.13061800    -0.21400
C2362       C  0.57898920  0.97632698  0.12488845    -0.19900
C2363       C  0.58803782  0.50763633  0.12158639     0.19300
C2364       C  0.61989443  0.51733751  0.12460740     0.01400
C2365       C  0.62845924  0.54856709  0.11983145    -0.14700
C2366       C  0.60627483  0.56922579  0.11241862    -0.12400
C2367       C  0.57479894  0.55979386  0.11000723     0.00900
C2368       C  0.56562224  0.52916587  0.11484136    -0.24600
H2369       H  0.71829200  0.98810518  0.14657429     0.08900
H2370       H  0.68177589  0.52753420  0.13625250     0.12500
H2371       H  0.64751213  0.91567841  0.14098990     0.11200
H2372       H  0.59362895  0.92989453  0.13257871     0.12400
H2373       H  0.55478850  0.96873526  0.12254852     0.11400
H2374       H  0.65231304  0.55742245  0.12112533     0.08500
H2375       H  0.61366857  0.59290176  0.10873489     0.11800
H2376       H  0.54125975  0.52179887  0.11274536     0.13600
C2377       C  0.68217216  0.87621493  0.21365217    -0.01900
C2378       C  0.67206846  0.84751970  0.22109636    -0.09900
C2379       C  0.64872727  0.84675301  0.23433263    -0.18700
C2380       C  0.63471039  0.87490429  0.24076731     0.03700
C2381       C  0.64416889  0.90395472  0.23274080     0.17900
C2382       C  0.66764303  0.90436135  0.21927004    -0.20100
C2383       C  0.63050295  0.93241876  0.23842201    -0.21400
C2384       C  0.60815701  0.93274285  0.25222637    -0.19900
C2385       C  0.59903758  0.90462347  0.26073657     0.19300
C2386       C  0.61198101  0.87525321  0.25501713     0.01400
C2387       C  0.60197262  0.84751507  0.26401113    -0.14700
C2388       C  0.58007245  0.84887872  0.27802671    -0.12400
C2389       C  0.56752069  0.87780678  0.28369958     0.00900
C2390       C  0.57712213  0.90566284  0.27501147    -0.24600
H2391       H  0.68244014  0.82535370  0.21676985     0.08900
H2392       H  0.64246933  0.82368644  0.23932167     0.12500
H2393       H  0.67507969  0.92668591  0.21345641     0.11200
H2394       H  0.63739017  0.95463169  0.23227590     0.12400
H2395       H  0.59821065  0.95518966  0.25641828     0.11400
H2396       H  0.61063803  0.82432831  0.26064178     0.08500
H2397       H  0.57304642  0.82705203  0.28454627     0.11800
H2398       H  0.56723599  0.92814697  0.27921411     0.13600
C2399       C  0.93414289  0.87352755  0.28450354    -0.01900
C2400       C  0.92638889  0.90157000  0.27550678    -0.09900
C2401       C  0.90429738  0.90172688  0.26159370    -0.18700
C2402       C  0.88904520  0.87360359  0.25606799     0.03700
C2403       C  0.89683973  0.84512502  0.26523221     0.17900
C2404       C  0.91916095  0.84532737  0.27932640    -0.20100
C2405       C  0.88235152  0.81665384  0.26023645    -0.21400
C2406       C  0.86017599  0.81585460  0.24635430    -0.19900
C2407       C  0.85190020  0.84351334  0.23712263     0.19300
C2408       C  0.86627298  0.87279708  0.24184759     0.01400
C2409       C  0.85704476  0.90009787  0.23221001    -0.14700
C2410       C  0.83404721  0.89853747  0.21881795    -0.12400
C2411       C  0.81968223  0.86979875  0.21432292     0.00900
C2412       C  0.82902710  0.84220495  0.22332615    -0.24600
H2413       H  0.93755515  0.92370847  0.27918919     0.08900
H2414       H  0.89983172  0.92434235  0.25544737     0.12500
H2415       H  0.92509329  0.82343473  0.28613605     0.11200
H2416       H  0.88817315  0.79483556  0.26713956     0.12400
H2417       H  0.84931542  0.79345782  0.24286681     0.11400
H2418       H  0.86684979  0.92316392  0.23475715     0.08500
H2419       H  0.82743693  0.92011170  0.21190105     0.11800
H2420       H  0.81787163  0.81988614  0.21994011     0.13600
C2421       C  0.57020173  0.80619850  0.35708348    -0.01900
C2422       C  0.57832110  0.80873841  0.37533778    -0.09900
C2423       C  0.60052864  0.78844498  0.38304630    -0.18700
C2424       C  0.61534404  0.76459313  0.37271634     0.03700
C2425       C  0.60781947  0.76278871  0.35405463     0.17900
C2426       C  0.58552267  0.78352089  0.34644254    -0.20100
C2427       C  0.62218776  0.73995119  0.34314446    -0.21400
C2428       C  0.64357753  0.71849371  0.35040244    -0.19900
C2429       C  0.65091749  0.71917567  0.36878004     0.19300
C2430       C  0.63698381  0.74222907  0.38024310     0.01400
C2431       C  0.64482873  0.74139421  0.39878457    -0.14700
C2432       C  0.66524622  0.71836690  0.40563194    -0.12400
C2433       C  0.67880324  0.69572187  0.39425423     0.00900
C2434       C  0.67177442  0.69651198  0.37580550    -0.24600
H2435       H  0.56718365  0.82635322  0.38383485     0.08900
H2436       H  0.60535424  0.79192489  0.39715767     0.12500
H2437       H  0.57958099  0.78149112  0.33227649     0.11200
H2438       H  0.61665893  0.73851256  0.32890874     0.12400
H2439       H  0.65414277  0.70095042  0.34161195     0.11400
H2440       H  0.63525874  0.75788653  0.40841374     0.08500
H2441       H  0.67043728  0.71830255  0.41992370     0.11800
H2442       H  0.68201781  0.67894252  0.36689401     0.13600
C2443       C  0.82464309  0.69596758  0.39456803    -0.01900
C2444       C  0.84314512  0.71354794  0.40657464    -0.09900
C2445       C  0.86412721  0.73662594  0.40025528    -0.18700
C2446       C  0.86785302  0.74224687  0.38156791     0.03700
C2447       C  0.84965684  0.72357450  0.36944761     0.17900
C2448       C  0.82782925  0.70126668  0.37602793    -0.20100
C2449       C  0.85380792  0.72680658  0.35082683    -0.21400
C2450       C  0.87612832  0.74779080  0.34394076    -0.19900
C2451       C  0.89412144  0.76682311  0.35548215     0.19300
C2452       C  0.88956565  0.76504733  0.37444877     0.01400
C2453       C  0.90689762  0.78623991  0.38542039    -0.14700
C2454       C  0.92868299  0.80737397  0.37791099    -0.12400
C2455       C  0.93432246  0.80774632  0.35933003     0.00900
C2456       C  0.91677404  0.78758202  0.34816430    -0.24600
H2457       H  0.84119474  0.70956722  0.42095387     0.08900
H2458       H  0.87768684  0.74908684  0.41029542     0.12500
H2459       H  0.81402868  0.68718691  0.36667017     0.11200
H2460       H  0.84013837  0.71253186  0.34152069     0.12400
H2461       H  0.87923454  0.74924932  0.32946770     0.11400
H2462       H  0.90394703  0.78723643  0.39982957     0.08500
H2463       H  0.94182967  0.82295891  0.38675929     0.11800
H2464       H  0.92062592  0.78822820  0.33371798     0.13600
C2465       C  0.82592245  0.56153104  0.39384820    -0.01900
C2466       C  0.82450015  0.55530144  0.37531516    -0.09900
C2467       C  0.84494512  0.53362479  0.36731564    -0.18700
C2468       C  0.86780496  0.51733184  0.37763084     0.03700
C2469       C  0.86872726  0.52316120  0.39651918     0.17900
C2470       C  0.84787468  0.54506467  0.40442840    -0.20100
C2471       C  0.89064737  0.00730729  0.40737920    -0.21400
C2472       C  0.91181943  0.98586206  0.39988829    -0.19900
C2473       C  0.91177184  0.97996681  0.38133454     0.19300
C2474       C  0.88985978  0.99562512  0.36988382     0.01400
C2475       C  0.89132130  0.48915110  0.35117123    -0.14700
C2476       C  0.91373988  0.96817103  0.34418413    -0.12400
C2477       C  0.93519883  0.95282322  0.35557224     0.00900
C2478       C  0.93387288  0.95870217  0.37415290    -0.24600
H2479       H  0.80753872  0.56743357  0.36681627     0.08900
H2480       H  0.84224739  0.53027833  0.35302494     0.12500
H2481       H  0.84909468  0.54963670  0.41878427     0.11200
H2482       H  0.89147569  0.01157023  0.42176931     0.12400
H2483       H  0.92855225  0.97399594  0.40865973     0.11400
H2484       H  0.87576738  0.50012805  0.34153478     0.08500
H2485       H  0.91429387  0.96401531  0.32978462     0.11800
H2486       H  0.95050728  0.94709033  0.38310282     0.13600
C2487       C  0.56959160  0.95108762  0.35604097    -0.01900
C2488       C  0.59148433  0.96485431  0.34425278    -0.09900
C2489       C  0.61458750  0.48572572  0.35070347    -0.18700
C2490       C  0.61571801  0.99417966  0.36915834     0.03700
C2491       C  0.59251037  0.98091324  0.38085262     0.17900
C2492       C  0.57035390  0.95899655  0.37431371    -0.20100
C2493       C  0.59110045  0.99004943  0.39894269    -0.21400
C2494       C  0.61204716  0.01243244  0.40569574    -0.19900
C2495       C  0.63563678  0.52541424  0.39469043     0.19300
C2496       C  0.63840558  0.51589451  0.37637841     0.01400
C2497       C  0.66384383  0.52842861  0.36619073    -0.14700
C2498       C  0.68485702  0.55033606  0.37371855    -0.12400
C2499       C  0.68101398  0.56075803  0.39151476     0.00900
C2500       C  0.65647612  0.54794710  0.40194350    -0.24600
H2501       H  0.59089678  0.95917195  0.33002233     0.08900
H2502       H  0.63068252  0.49548281  0.34087972     0.12500
H2503       H  0.55286872  0.94884176  0.38335133     0.11200
H2504       H  0.57327767  0.98023470  0.40786455     0.12400
H2505       H  0.60994079  0.01945127  0.41968888     0.11400
H2506       H  0.66826908  0.52152955  0.35243733     0.08500
H2507       H  0.70383641  0.55965210  0.36542759     0.11800
H2508       H  0.65365904  0.55542866  0.41582789     0.13600
C2509       C  0.74772973  0.94537307  0.53628251    -0.01900
C2510       C  0.72025924  0.96338638  0.53346133    -0.09900
C2511       C  0.71904887  0.98624522  0.51992300    -0.18700
C2512       C  0.74546065  0.99193441  0.50863477     0.03700
C2513       C  0.77350096  0.97406213  0.51178290     0.17900
C2514       C  0.77434001  0.95101437  0.52542114    -0.20100
C2515       C  0.80057935  0.47925653  0.50128646    -0.21400
C2516       C  0.80056006  0.50200766  0.48778104    -0.19900
C2517       C  0.77327846  0.51974112  0.48419633     0.19300
C2518       C  0.74514871  0.51471758  0.49439339     0.01400
C2519       C  0.71792179  0.53250578  0.48973215    -0.14700
C2520       C  0.71876050  0.55442589  0.47565600    -0.12400
C2521       C  0.74676833  0.55976576  0.46598828     0.00900
C2522       C  0.77396460  0.54241753  0.47037480    -0.24600
H2523       H  0.69938739  0.95973466  0.54172502     0.08900
H2524       H  0.69712668  0.99914089  0.51870310     0.12500
H2525       H  0.79576603  0.93732514  0.52750369     0.11200
H2526       H  0.82202724  0.46574460  0.50361057     0.12400
H2527       H  0.82200504  0.50559729  0.47998362     0.11400
H2528       H  0.69554798  0.52987104  0.49658833     0.08500
H2529       H  0.69752026  0.56776387  0.47255482     0.11800
H2530       H  0.79566414  0.54632457  0.46283671     0.13600
C2531       C  0.75195205  0.69368593  0.46696132    -0.01900
C2532       C  0.72288756  0.70610879  0.47274830    -0.09900
C2533       C  0.72155989  0.72851338  0.48651921    -0.18700
C2534       C  0.74945917  0.73917108  0.49517673     0.03700
C2535       C  0.77891167  0.72629208  0.48937922     0.17900
C2536       C  0.77992609  0.70402247  0.47530210    -0.20100
C2537       C  0.80717221  0.73561642  0.49771998    -0.21400
C2538       C  0.80690057  0.75771771  0.51160360    -0.19900
C2539       C  0.77838483  0.77128158  0.51741654     0.19300
C2540       C  0.74921893  0.76216123  0.50931477     0.01400
C2541       C  0.72112808  0.77672445  0.51560106    -0.14700
C2542       C  0.72204094  0.79973629  0.52904890    -0.12400
C2543       C  0.75081735  0.80897993  0.53686421     0.00900
C2544       C  0.77891134  0.79428054  0.53113009    -0.24600
H2545       H  0.70091339  0.69853994  0.46653890     0.08900
H2546       H  0.69827691  0.73684828  0.49011214     0.12500
H2547       H  0.80252059  0.69431495  0.47104611     0.11200
H2548       H  0.82968860  0.72576920  0.49345670     0.12400
H2549       H  0.82921916  0.76447873  0.51772645     0.11400
H2550       H  0.69804601  0.77118866  0.51027638     0.08500
H2551       H  0.69994138  0.81048046  0.53328829     0.11800
H2552       H  0.80134293  0.80121025  0.53707158     0.13600
C2553       C  0.67197444  0.81372919  0.60742341    -0.01900
C2554       C  0.65578188  0.79332793  0.59580541    -0.09900
C2555       C  0.63413073  0.77140523  0.60254296    -0.18700
C2556       C  0.62791677  0.76925983  0.62124761     0.03700
C2557       C  0.64411003  0.79038474  0.63293481     0.17900
C2558       C  0.66597160  0.81213868  0.62597971    -0.20100
C2559       C  0.63836705  0.78976653  0.65150254    -0.21400
C2560       C  0.61693926  0.76836103  0.65879962    -0.19900
C2561       C  0.60095836  0.74689963  0.64771809     0.19300
C2562       C  0.60623362  0.74700101  0.62877508     0.01400
C2563       C  0.58970225  0.72467698  0.61821090    -0.14700
C2564       C  0.56867324  0.70343212  0.62608469    -0.12400
C2565       C  0.56334132  0.70355972  0.64472056     0.00900
C2566       C  0.57967579  0.72529982  0.65548419    -0.24600
H2567       H  0.65986747  0.79425419  0.58140354     0.08900
H2568       H  0.62259886  0.75663361  0.59271830     0.12500
H2569       H  0.67815430  0.82808532  0.63508273     0.11200
H2570       H  0.65053524  0.80596859  0.66045106     0.12400
H2571       H  0.61297494  0.76847573  0.67323009     0.11400
H2572       H  0.59247930  0.72288312  0.60382482     0.08500
H2573       H  0.55642871  0.68680971  0.61743643     0.11800
H2574       H  0.57562249  0.72563325  0.66991287     0.13600
C2575       C  0.81837308  0.80928666  0.61041894    -0.01900
C2576       C  0.81788342  0.80292675  0.62892387    -0.09900
C2577       C  0.83897359  0.78120091  0.63647251    -0.18700
C2578       C  0.86098206  0.76466710  0.62560597     0.03700
C2579       C  0.86005911  0.76990186  0.60668024     0.17900
C2580       C  0.83936796  0.79252753  0.59934332    -0.20100
C2581       C  0.87982581  0.75256729  0.59519873    -0.21400
C2582       C  0.90063938  0.73016747  0.60211133    -0.19900
C2583       C  0.90307664  0.72543329  0.62072059     0.19300
C2584       C  0.88375628  0.74306407  0.63279108     0.01400
C2585       C  0.88877436  0.73896689  0.65150814    -0.14700
C2586       C  0.91190012  0.71812968  0.65789965    -0.12400
C2587       C  0.93003210  0.70013237  0.64591445     0.00900
C2588       C  0.92530753  0.70365865  0.62735471    -0.24600
H2589       H  0.80164999  0.81546323  0.63770172     0.08900
H2590       H  0.83726685  0.77761062  0.65081428     0.12500
H2591       H  0.83940554  0.79694977  0.58494842     0.11200
H2592       H  0.87902200  0.75619770  0.58075121     0.12400
H2593       H  0.91545541  0.71695142  0.59285271     0.11400
H2594       H  0.87586154  0.75219656  0.66151663     0.08500
H2595       H  0.91549575  0.71589702  0.67229607     0.11800
H2596       H  0.93986329  0.69024084  0.61803737     0.13600
C2597       C  0.82341075  0.94305801  0.60881833    -0.01900
C2598       C  0.82477675  0.94694556  0.62755531    -0.09900
C2599       C  0.84505168  0.96903728  0.63529266    -0.18700
C2600       C  0.86483573  0.98818090  0.62448805     0.03700
C2601       C  0.86332797  0.98424544  0.60546418     0.17900
C2602       C  0.84271672  0.96187756  0.59783683    -0.20100
C2603       C  0.88255437  0.50250266  0.59416469    -0.21400
C2604       C  0.90352268  0.52444956  0.60134777    -0.19900
C2605       C  0.90572039  0.52869015  0.61999969     0.19300
C2606       C  0.88627140  0.51081111  0.63186847     0.01400
C2607       C  0.88937161  0.51619679  0.65060273    -0.14700
C2608       C  0.91145264  0.53775593  0.65723660    -0.12400
C2609       C  0.93098878  0.55477907  0.64548220     0.00900
C2610       C  0.92764654  0.55046128  0.62686180    -0.24600
H2611       H  0.81016188  0.93268422  0.63639469     0.08900
H2612       H  0.84472810  0.97035258  0.64978489     0.12500
H2613       H  0.84185707  0.95901885  0.58332503     0.11200
H2614       H  0.88151146  0.49965181  0.57966432     0.12400
H2615       H  0.91827910  0.53807271  0.59224636     0.11400
H2616       H  0.87532567  0.00398372  0.66053305     0.08500
H2617       H  0.91341971  0.54086342  0.67168000     0.11800
H2618       H  0.94262297  0.56361042  0.61763622     0.13600
C2619       C  0.67840918  0.94794693  0.60807922    -0.01900
C2620       C  0.66040317  0.96570350  0.59590003    -0.09900
C2621       C  0.63946794  0.98899329  0.60200713    -0.18700
C2622       C  0.63518187  0.99458603  0.62065104     0.03700
C2623       C  0.65315983  0.97601377  0.63293577     0.17900
C2624       C  0.67511499  0.95362898  0.62656712    -0.20100
C2625       C  0.64838047  0.97914247  0.65150933    -0.21400
C2626       C  0.62539684  0.99961217  0.65817307    -0.19900
C2627       C  0.60746944  0.51839093  0.64647128     0.19300
C2628       C  0.61290344  0.51704106  0.62757237     0.01400
C2629       C  0.59573213  0.53818547  0.61648329    -0.14700
C2630       C  0.57318384  0.55875458  0.62380979    -0.12400
C2631       C  0.56658564  0.55853076  0.64230500     0.00900
C2632       C  0.58402229  0.53847229  0.65357606    -0.24600
H2633       H  0.66253668  0.96152111  0.58154725     0.08900
H2634       H  0.62617024  0.00145552  0.59185001     0.12500
H2635       H  0.68860598  0.93951107  0.63604952     0.11200
H2636       H  0.66190138  0.96499035  0.66094321     0.12400
H2637       H  0.62167531  0.50082595  0.67260635     0.11400
H2638       H  0.59943067  0.53957676  0.60213424     0.08500
H2639       H  0.56025351  0.57438017  0.61488507     0.11800
H2640       H  0.57952491  0.53874180  0.66796593     0.13600
C2641       C  0.67971472  0.61605289  0.78813475    -0.01900
C2642       C  0.66721463  0.58749875  0.78174609    -0.09900
C2643       C  0.64527519  0.58723420  0.76758886    -0.18700
C2644       C  0.63500831  0.61573805  0.75942643     0.03700
C2645       C  0.64719788  0.64459808  0.76635351     0.17900
C2646       C  0.66929543  0.64446747  0.78043804    -0.20100
C2647       C  0.63741127  0.67356103  0.75916443    -0.21400
C2648       C  0.61551501  0.67461741  0.74523595    -0.19900
C2649       C  0.60316430  0.64672282  0.73798214     0.19300
C2650       C  0.61300148  0.61681590  0.74476962     0.01400
C2651       C  0.60042872  0.58942134  0.73652161    -0.14700
C2652       C  0.57847054  0.59172528  0.72249366    -0.12400
C2653       C  0.56810902  0.62128832  0.71629186     0.00900
C2654       C  0.58082579  0.64867147  0.72401209    -0.24600
H2655       H  0.67485673  0.56522227  0.78747907     0.08900
H2656       H  0.63678658  0.56439041  0.76335245     0.12500
H2657       H  0.67854358  0.66675952  0.78538675     0.11200
H2658       H  0.64664380  0.69561990  0.76442708     0.12400
H2659       H  0.60823396  0.69745269  0.74007130     0.11400
H2660       H  0.60707457  0.56589784  0.74060077     0.08500
H2661       H  0.56906634  0.57015217  0.71672336     0.11800
H2662       H  0.57322566  0.67164393  0.71918071     0.13600
C2663       C  0.93216356  0.62814060  0.71770725    -0.01900
C2664       C  0.91693341  0.59962345  0.72179108    -0.09900
C2665       C  0.89339624  0.59821312  0.73500088    -0.18700
C2666       C  0.88448322  0.62541197  0.74487830     0.03700
C2667       C  0.90018729  0.65431719  0.74081868     0.17900
C2668       C  0.92347302  0.65551637  0.72719372    -0.20100
C2669       C  0.89274853  0.68175555  0.75050138    -0.21400
C2670       C  0.87009272  0.68113213  0.76416733    -0.19900
C2671       C  0.85400131  0.65312823  0.76840385     0.19300
C2672       C  0.86081299  0.62490201  0.75872505     0.01400
C2673       C  0.84359188  0.59738561  0.76332988    -0.14700
C2674       C  0.82087240  0.59780149  0.77699979    -0.12400
C2675       C  0.81433077  0.62552619  0.78666052     0.00900
C2676       C  0.83106246  0.65318441  0.78224967    -0.24600
H2677       H  0.92309522  0.57819124  0.71460628     0.08900
H2678       H  0.88289916  0.57534646  0.73725849     0.12500
H2679       H  0.93532025  0.67767337  0.72422550     0.11200
H2680       H  0.90468702  0.70385659  0.74755479     0.12400
H2681       H  0.86505408  0.70276217  0.77144632     0.11400
H2682       H  0.84694531  0.57511330  0.75657525     0.08500
H2683       H  0.80830599  0.57608651  0.77999151     0.11800
H2684       H  0.82615049  0.67485168  0.78953091     0.13600
C2685       C  0.00367317  0.94019362  0.96678567    -0.01900
C2686       C  0.53280256  0.95278818  0.97233211    -0.09900
C2687       C  0.53418067  0.97583770  0.98577594    -0.18700
C2688       C  0.00625068  0.98722067  0.99411736     0.03700
C2689       C  0.97669172  0.97507574  0.98801361     0.17900
C2690       C  0.97568852  0.95171274  0.97459576    -0.20100
C2691       C  0.94825641  0.98618904  0.99538665    -0.21400
C2692       C  0.94847929  0.50907084  0.00879949    -0.19900
C2693       C  0.97715609  0.52105493  0.01536616     0.19300
C2694       C  0.00651338  0.51017024  0.00825505     0.01400
C2695       C  0.53477458  0.52247077  0.01578630    -0.14700
C2696       C  0.53383120  0.54480930  0.02963749    -0.12400
C2697       C  0.50482057  0.55586313  0.03630913     0.00900
C2698       C  0.97658442  0.54382696  0.02909975    -0.24600
H2699       H  0.55477364  0.94447467  0.96642991     0.08900
H2700       H  0.55746390  0.98428514  0.98930259     0.12500
H2701       H  0.95297016  0.94243954  0.97024401     0.11200
H2702       H  0.92565201  0.97714055  0.99072773     0.12400
H2703       H  0.92603813  0.51724970  0.01419532     0.11400
H2704       H  0.55798567  0.51515518  0.01137916     0.08500
H2705       H  0.55597018  0.55379785  0.03497714     0.11800
H2706       H  0.95399058  0.55203530  0.03429664     0.13600
C2707       C  0.49163875  0.80468831  0.96721901    -0.01900
C2708       C  0.96294380  0.79644014  0.97541218    -0.09900
C2709       C  0.96216400  0.77385555  0.98911264    -0.18700
C2710       C  0.49023622  0.75854953  0.99488091     0.03700
C2711       C  0.51911684  0.76644458  0.98606148     0.17900
C2712       C  0.51958242  0.78948088  0.97253135    -0.20100
C2713       C  0.54743503  0.75139645  0.99080186    -0.21400
C2714       C  0.54780353  0.72864500  0.00425446    -0.19900
C2715       C  0.51994574  0.72074344  0.01344188     0.19300
C2716       C  0.49075793  0.73567708  0.00900302     0.01400
C2717       C  0.96348958  0.72721216  0.01900400    -0.14700
C2718       C  0.96513665  0.70462982  0.03265373    -0.12400
C2719       C  0.49387796  0.68969535  0.03675010     0.00900
C2720       C  0.52119085  0.69795342  0.02710533    -0.24600
H2721       H  0.94108565  0.80796596  0.97146417     0.08900
H2722       H  0.93923501  0.76888402  0.99485921     0.12500
H2723       H  0.54183219  0.79551461  0.96603125     0.11200
H2724       H  0.56946041  0.75722965  0.98403113     0.12400
H2725       H  0.57009751  0.71731770  0.00759147     0.11400
H2726       H  0.94056976  0.73769003  0.01669678     0.08500
H2727       H  0.94367813  0.69868104  0.03994018     0.11800
H2728       H  0.54359534  0.68663161  0.03023704     0.13600
C2729       C  0.67806296  0.69070634  0.85974902    -0.01900
C2730       C  0.67173281  0.68939899  0.87827668    -0.09900
C2731       C  0.64911513  0.70913491  0.88606552    -0.18700
C2732       C  0.63218736  0.73121705  0.87552916     0.03700
C2733       C  0.63786187  0.73158576  0.85661941     0.17900
C2734       C  0.66042052  0.71127325  0.84892756    -0.20100
C2735       C  0.62165278  0.75284797  0.84553774    -0.21400
C2736       C  0.60057447  0.77449246  0.85287943    -0.19900
C2737       C  0.59517101  0.77533799  0.87147115     0.19300
C2738       C  0.61049995  0.75347545  0.88308933     0.01400
C2739       C  0.60402606  0.75545919  0.90178399    -0.14700
C2740       C  0.58396791  0.77880996  0.90863786    -0.12400
C2741       C  0.56956767  0.80068787  0.89711827     0.00900
C2742       C  0.57492381  0.79844347  0.87852520    -0.24600
H2743       H  0.68468860  0.67331085  0.88691565     0.08900
H2744       H  0.64589821  0.70688230  0.90040677     0.12500
H2745       H  0.66499003  0.71227115  0.83455724     0.11200
H2746       H  0.62573825  0.75313215  0.83111832     0.12400
H2747       H  0.58878304  0.79103633  0.84397216     0.11400
H2748       H  0.61438548  0.73963476  0.91150398     0.08500
H2749       H  0.57996227  0.77989349  0.92304277     0.11800
H2750       H  0.56379747  0.81519297  0.86945510     0.13600
C2751       C  0.81336986  0.69736357  0.85915690    -0.01900
C2752       C  0.80684956  0.72971190  0.85768390    -0.09900
C2753       C  0.82817526  0.75223985  0.86411591    -0.18700
C2754       C  0.85725624  0.74313576  0.87202500     0.03700
C2755       C  0.86458873  0.71033179  0.87263445     0.17900
C2756       C  0.84235508  0.68776869  0.86663182    -0.20100
C2757       C  0.89413969  0.70035838  0.87910506    -0.21400
C2758       C  0.91656489  0.72226973  0.88497132    -0.19900
C2759       C  0.90953218  0.75463165  0.88523372     0.19300
C2760       C  0.87942392  0.76543522  0.87916301     0.01400
C2761       C  0.87246661  0.79799770  0.88095717    -0.14700
C2762       C  0.89458197  0.81891944  0.88825551    -0.12400
C2763       C  0.92457404  0.80839104  0.89353365     0.00900
C2764       C  0.93212823  0.77627228  0.89186800    -0.24600
H2765       H  0.78477667  0.73769732  0.85176541     0.08900
H2766       H  0.82146207  0.77663322  0.86239727     0.14100
H2767       H  0.84785492  0.66276707  0.86743670     0.11200
H2768       H  0.90009634  0.67544468  0.87944081     0.12400
H2769       H  0.93933513  0.71377910  0.88969792     0.11400
H2770       H  0.84980613  0.80789163  0.87732690     0.08500
H2771       H  0.88833801  0.84365564  0.88962023     0.11800
H2772       H  0.95519973  0.76803086  0.89629054     0.13600
C2773       C  0.81916213  0.55063283  0.85823930    -0.01900
C2774       C  0.83872643  0.53367332  0.84649469    -0.09900
C2775       C  0.86137092  0.51273863  0.85316372    -0.18700
C2776       C  0.86500062  0.50793991  0.87192314     0.03700
C2777       C  0.84541359  0.02566876  0.88377671     0.17900
C2778       C  0.82300321  0.54686999  0.87688030    -0.20100
C2779       C  0.84783504  0.02171820  0.90244399    -0.21400
C2780       C  0.86900640  0.00000725  0.90964982    -0.19900
C2781       C  0.88837142  0.98189707  0.89835615     0.19300
C2782       C  0.88691103  0.98583027  0.87933408     0.01400
C2783       C  0.90716699  0.96714616  0.86855068    -0.14700
C2784       C  0.92741128  0.94504414  0.87628696    -0.12400
C2785       C  0.92831986  0.94080063  0.89498829     0.00900
C2786       C  0.90896155  0.95955428  0.90597662    -0.24600
H2787       H  0.83628147  0.53626277  0.83204277     0.08900
H2788       H  0.87527616  0.50038821  0.84324142     0.12500
H2789       H  0.80797904  0.55993293  0.88611358     0.11200
H2790       H  0.83296271  0.03523658  0.91153103     0.12400
H2791       H  0.87007661  0.99720078  0.92415253     0.11400
H2792       H  0.90786552  0.46880556  0.85408381     0.08500
H2793       H  0.94224659  0.93095696  0.86747851     0.11800
H2794       H  0.90954108  0.95645889  0.92047670     0.13600
C2795       C  0.68642784  0.54709458  0.86261563    -0.01900
C2796       C  0.69723480  0.51741264  0.86813286    -0.09900
C2797       C  0.67633516  0.99530847  0.87549782    -0.18700
C2798       C  0.64356018  0.50196921  0.87705492     0.03700
C2799       C  0.63257327  0.53182119  0.87082038     0.17900
C2800       C  0.65417375  0.55442818  0.86420159    -0.20100
C2801       C  0.60004532  0.53852206  0.87077324    -0.21400
C2802       C  0.57811301  0.51590133  0.87634485    -0.19900
C2803       C  0.58822604  0.98655159  0.88290504     0.19300
C2804       C  0.62119433  0.97967732  0.88399320     0.01400
C2805       C  0.63036492  0.95088711  0.89211226    -0.14700
C2806       C  0.60774992  0.92931994  0.89819582    -0.12400
C2807       C  0.57528900  0.93532778  0.89614404     0.00900
C2808       C  0.56562273  0.96407288  0.88852827    -0.24600
H2809       H  0.72211118  0.51137603  0.86683170     0.08900
H2810       H  0.68636548  0.97283259  0.87927257     0.12500
H2811       H  0.64576940  0.57727740  0.85960942     0.11200
H2812       H  0.59144430  0.56111899  0.86593591     0.12400
H2813       H  0.55306643  0.52153053  0.87568913     0.11400
H2814       H  0.65484928  0.94462878  0.89426718     0.08500
H2815       H  0.61577288  0.90749388  0.90432279     0.11800
H2816       H  0.54051398  0.96922294  0.88735330     0.13600
loop_ 
_geom_bond_atom_site_label_1 
_geom_bond_atom_site_label_2 
_geom_bond_distance 
_geom_bond_site_symmetry_2 
_ccdc_geom_bond_type 
O1           C16   1.259       .  A
O1           Al9   1.892       .  S
C2           O12   1.260       .  A
C2            O3   1.261       .  A
C2          C629   1.476       .  S
O3           Al5   1.903   1_455  S
O4            C6   1.262       .  A
O4        Al1413   1.908       .  S
Al5          O13   1.912   1_655  S
Al5        O1412   1.908       .  S
Al5        O1423   1.900       .  S
Al5          O14   1.779       .  S
C6           O19   1.266       .  A
C6          C651   1.473       .  S
O7         C1425   1.260       .  A
O7           Al9   1.893       .  S
O8         C1429   1.261       .  A
O8          Al18   1.892       .  S
Al9          O22   1.917       .  S
Al9          O19   1.926       .  S
Al9        O1422   1.784       .  S
O10          C17   1.260   1_455  A
O10         Al18   1.899       .  S
O11          C20   1.264       .  A
O11         Al18   1.915       .  S
O12         Al18   1.897       .  S
O13          C20   1.264       .  A
O14         Al18   1.781   1_655  S
O14       Al1417   1.784       .  S
O15          C16   1.260       .  A
O15       Al1413   1.900       .  S
C16         C673   1.474       .  S
C17        O1415   1.260       .  A
C17         C595   1.471       .  S
C20         C695   1.478       .  S
C21          O22   1.264       .  A
C21        O1416   1.261       .  A
C21         C573   1.480       .  S
O23          C38   1.261       .  A
O23         Al31   1.901       .  S
C24          O34   1.260       .  A
C24          O25   1.260       .  A
C24         C661   1.474       .  S
O25         Al27   1.899       .  S
O26          C28   1.262       .  A
O26         Al27   1.910       .  S
Al27         O35   1.904       .  S
Al27         O37   1.900       .  S
Al27         O36   1.783       .  S
C28          O41   1.264       .  A
C28         C639   1.480       .  S
O29          C39   1.263       .  A
O29         Al31   1.908       .  S
O30          C43   1.262       .  A
O30         Al40   1.905       .  S
Al31         O44   1.905       .  S
Al31         O41   1.917       .  S
Al31         O36   1.782       .  S
O32          C39   1.265       .  A
O32         Al40   1.916       .  S
O33          C42   1.264       .  A
O33         Al40   1.925       .  S
O34         Al40   1.894       .  S
O35          C42   1.261       .  A
O36         Al40   1.783       .  S
O37          C38   1.260       .  A
C38         C617   1.476       .  S
C39         C563   1.487       .  S
C42         C683   1.472       .  S
C43          O44   1.262       .  A
C43         C529   1.481       .  S
O45          C60   1.260       .  A
O45         Al53   1.901       .  S
C46          O56   1.258       .  A
C46          O47   1.259       .  A
C46         C441   1.474       .  S
O47         Al49   1.899       .  S
O48          C50   1.261       .  A
O48         Al49   1.891       .  S
Al49         O57   1.896       .  S
Al49         O59   1.892       .  S
Al49         O58   1.792       .  S
C50          O63   1.265       .  A
C50         C463   1.476       .  S
O51          C61   1.260       .  A
O51         Al53   1.898       .  S
O52          C65   1.257       .  A
O52         Al62   1.880       .  S
Al53         O66   1.924       .  S
Al53         O63   1.920       .  S
Al53         O58   1.792       .  S
O54          C61   1.262       .  A
O54         Al62   1.911       .  S
O55          C64   1.264       .  A
O55         Al62   1.917       .  S
O56         Al62   1.890       .  S
O57          C64   1.261       .  A
O58         Al62   1.785       .  S
O59          C60   1.258       .  A
C60         C485   1.476       .  S
C61         C431   1.484       .  S
C64         C507   1.477       .  S
C65          O66   1.264       .  A
C65         C397   1.482       .  S
O67          C82   1.259       .  A
O67       Al1483   1.899       .  S
C68          O78   1.256       .  A
C68          O69   1.258       .  A
C68         C497   1.474       .  S
O69       Al1479   1.901       .  S
O70          C72   1.260       .  A
O70       Al1479   1.886       .  S
Al71         O79   1.892   1_655  S
Al71         O81   1.890   1_655  S
Al71       O1477   1.901       .  S
Al71       O1478   1.886       .  S
Al71         O80   1.795       .  S
C72          O85   1.265       .  A
C72         C475   1.473       .  S
O73          C83   1.259       .  A
O73         Al75   1.897       .  S
O74          C87   1.257       .  A
O74         Al84   1.881   1_455  S
Al75         O85   1.922       .  S
Al75       O1475   1.899       .  S
Al75       O1496   1.919       .  S
Al75       O1488   1.793       .  S
O76          C83   1.262       .  A
O76       Al1492   1.913       .  S
O77          C86   1.265       .  A
O77         Al84   1.925   1_455  S
O78       Al1492   1.887       .  S
O79          C86   1.260       .  A
O80         Al84   1.788       .  S
O80       Al1483   1.793   1_655  S
O81          C82   1.257       .  A
C82         C453   1.475       .  S
C83         C551   1.483       .  S
Al84       O1484   1.913       .  S
Al84       O1486   1.887       .  S
C86         C519   1.479       .  S
C87          O88   1.264       .  A
C87         C541   1.480       .  S
O88       Al1483   1.919       .  S
O89         C104   1.260       .  A
O89         Al97   1.904       .  S
C90         O100   1.258       .  A
C90          O91   1.258       .  A
C90         C321   1.477       .  S
O91         Al93   1.900       .  S
O92          C94   1.260       .  A
O92         Al93   1.891       .  S
Al93        O101   1.891       .  S
Al93        O103   1.888       .  S
Al93        O102   1.796       .  S
C94         O107   1.264       .  A
C94         C331   1.476       .  S
O95         C105   1.260       .  A
O95         Al97   1.899       .  S
O96         C109   1.259       .  A
O96        Al106   1.893       .  S
Al97        O110   1.910       .  S
Al97        O107   1.918       .  S
Al97        O102   1.794       .  S
O98         C105   1.261       .  A
O98        Al106   1.903       .  S
O99         C108   1.264       .  A
O99        Al106   1.919       .  S
O100       Al106   1.895       .  S
O101        C108   1.260       .  A
O102       Al106   1.792       .  S
O103        C104   1.257       .  A
C104        C353   1.478       .  S
C105        C419   1.481       .  S
C108        C387   1.481       .  S
C109        O110   1.262       .  A
C109        C409   1.477       .  S
O111        C126   1.260       .  A
O111      Al1527   1.899       .  S
C112        O122   1.260       .  A
C112        O113   1.259       .  A
C112        C309   1.479       .  S
O113      Al1523   1.896       .  S
O114        C116   1.259       .  A
O114      Al1523   1.889       .  S
Al115       O123   1.893       .  S
Al115       O125   1.894       .  S
Al115      O1521   1.896       .  S
Al115      O1522   1.889       .  S
Al115      O1532   1.794       .  S
C116        O129   1.262       .  A
C116        C375   1.470       .  S
O117        C127   1.259       .  A
O117       Al119   1.890       .  S
O118        C131   1.259       .  A
O118       Al128   1.897       .  S
Al119       O129   1.914       .  S
Al119      O1519   1.899   1_455  S
Al119      O1540   1.901   1_455  S
Al119       O124   1.794       .  S
O120        C127   1.262       .  A
O120      Al1536   1.906       .  S
O121        C130   1.262       .  A
O121       Al128   1.914       .  S
O122      Al1536   1.900       .  S
O123        C130   1.260       .  A
O124      Al1523   1.794       .  S
O124      Al1536   1.793       .  S
O125        C126   1.258       .  A
C126        C365   1.477       .  S
C127        C277   1.476       .  S
Al128      O1528   1.906       .  S
Al128      O1530   1.900       .  S
Al128      O1532   1.793       .  S
C130        C343   1.477       .  S
C131        O132   1.261       .  A
C131        C287   1.480       .  S
O132      Al1527   1.901       .  S
O133        C148   1.260       .  A
O133       Al141   1.887       .  S
C134        O144   1.257       .  A
C134        O135   1.260       .  A
C134        C233   1.470       .  S
O135      Al1545   1.901       .  S
O136        C138   1.259       .  A
O136       Al137   1.894   1_455  S
Al137       O147   1.907   1_655  S
Al137      O1543   1.901       .  S
Al137      O1553   1.888       .  S
Al137       O146   1.782       .  S
C138        O151   1.263       .  A
C138        C255   1.468       .  S
O139        C149   1.262       .  A
O139       Al141   1.895       .  S
O140       C1561   1.258       .  A
O140       Al150   1.882       .  S
Al141       O154   1.913       .  S
Al141       O151   1.919       .  S
Al141       O146   1.784   1_455  S
O142       C1557   1.264       .  A
O142       Al150   1.913       .  S
O143        C152   1.264       .  A
O143       Al150   1.919       .  S
O144       Al150   1.880       .  S
O145        C152   1.260       .  A
O145      Al1545   1.888       .  S
O146      Al1558   1.781       .  S
O147        C148   1.263       .  A
C148        C177   1.471       .  S
C149       O1550   1.264   1_455  A
C149        C585   1.478       .  S
Al150      O1554   1.781       .  S
C152        C211   1.478       .  S
C153        O154   1.263   1_655  A
C153       O1548   1.258       .  A
C153        C607   1.474       .  S
O155        C170   1.257       .  A
O155       Al163   1.896       .  S
C156        O166   1.262       .  A
C156        O157   1.262       .  A
C156        C221   1.471       .  S
O157       Al159   1.901       .  S
O158        C160   1.261       .  A
O158       Al159   1.894       .  S
Al159       O167   1.910       .  S
Al159       O169   1.887       .  S
Al159       O168   1.787       .  S
C160        O173   1.264       .  A
C160        C199   1.467       .  S
O161        C171   1.257       .  A
O161       Al163   1.899       .  S
O162        C175   1.263       .  A
O162       Al172   1.896       .  S
Al163       O176   1.906       .  S
Al163       O173   1.908       .  S
Al163       O168   1.781       .  S
O164        C171   1.257       .  A
O164       Al172   1.895       .  S
O165        C174   1.261       .  A
O165       Al172   1.909       .  S
O166       Al172   1.894       .  S
O167        C174   1.262       .  A
O168       Al172   1.786       .  S
O169        C170   1.255       .  A
C170        C189   1.470       .  S
C171        C299   1.475       .  S
C174        C243   1.471       .  S
C175        O176   1.266       .  A
C175        C265   1.477       .  S
C177        C178   1.399       .  A
C177        C182   1.399       .  A
C178        C179   1.392       .  A
C178        H191   1.083       .  S
C179        C180   1.413       .  A
C179        H192   1.077       .  S
C180        C186   1.426       .  A
C180        C181   1.423       .  A
C181        C183   1.398       .  A
C181        C182   1.402       .  A
C182        H193   1.085       .  S
C183        C184   1.388       .  A
C183        H194   1.084       .  S
C184        C185   1.399       .  A
C184        H195   1.084       .  S
C185        C186   1.421       .  A
C185        C190   1.400       .  A
C186        C187   1.416       .  A
C187        C188   1.394       .  A
C187        H196   1.076       .  S
C188        C189   1.397       .  A
C188        H197   1.084       .  S
C189        C190   1.401       .  A
C190        H198   1.085       .  S
C199        C200   1.396       .  A
C199        C204   1.398       .  A
C200        C201   1.394       .  A
C200        H213   1.084       .  S
C201        C202   1.415       .  A
C201        H214   1.077       .  S
C202        C208   1.428       .  A
C202        C203   1.424       .  A
C203        C205   1.399       .  A
C203        C204   1.406       .  A
C204        H215   1.085       .  S
C205        C206   1.390       .  A
C205        H216   1.084       .  S
C206        C207   1.400       .  A
C206        H217   1.084       .  S
C207        C208   1.422       .  A
C207        C212   1.405       .  A
C208        C209   1.415       .  A
C209        C210   1.395       .  A
C209        H218   1.077       .  S
C210        C211   1.400       .  A
C210        H219   1.083       .  S
C211        C212   1.402       .  A
C212        H220   1.085       .  S
C221        C222   1.400       .  A
C221        C226   1.400       .  A
C222        C223   1.388       .  A
C222        H235   1.083       .  S
C223        C224   1.411       .  A
C223        H236   1.076       .  S
C224        C225   1.423       .  A
C224        C934   1.423       .  A
C225        C226   1.402       .  A
C225        C931   1.399       .  A
C226        H237   1.084       .  S
C227        C228   1.389   1_565  A
C227        C929   1.399       .  A
C227        H238   1.084       .  S
C228        C229   1.399       .  A
C228        H239   1.084       .  S
C229        C230   1.421       .  A
C229        C234   1.400       .  A
C230        C231   1.415       .  A
C230        C928   1.423   1_545  A
C231        C232   1.390       .  A
C231        H944   1.076       .  S
C232        C233   1.398       .  A
C232        H241   1.084       .  S
C233        C234   1.401       .  A
C234        H242   1.084       .  S
H240        C935   1.076       .  S
C243        C244   1.399       .  A
C243        C248   1.399       .  A
C244        C949   1.393       .  A
C244        H257   1.084       .  S
C245        C948   1.393   1_545  A
C245        C950   1.413   1_545  A
C245        H258   1.078       .  S
C246        C247   1.423       .  A
C246        C949   1.413       .  A
C246        C956   1.426       .  A
C247        C249   1.400       .  A
C247        C248   1.407       .  A
C248        H259   1.085       .  S
C249        C250   1.392       .  A
C249        H260   1.084       .  S
C250        C955   1.400       .  A
C250        H261   1.084       .  S
C251        C252   1.422       .  A
C251        C256   1.405       .  A
C251        C954   1.400   1_545  A
C252        C253   1.415       .  A
C252        C950   1.426   1_545  A
C253        C254   1.394       .  A
C253        H262   1.078       .  S
C254        C255   1.397       .  A
C254        H263   1.084       .  S
C255        C256   1.399       .  A
C256        H264   1.085       .  S
C265        C266   1.400       .  A
C265        C270   1.403       .  A
C266        C267   1.390       .  A
C266        H279   1.083       .  S
C267        C268   1.413       .  A
C267        H280   1.076       .  S
C268        C274   1.427       .  A
C268        C269   1.423       .  A
C269        C271   1.400       .  A
C269        C270   1.406       .  A
C270        H281   1.084       .  S
C271        C272   1.392       .  A
C271        H282   1.084       .  S
C272        C273   1.400       .  A
C272        H283   1.084       .  S
C273        C274   1.422       .  A
C273        C278   1.406       .  A
C274        C275   1.414       .  A
C275        C276   1.392       .  A
C275        H284   1.076       .  S
C276        C277   1.398       .  A
C276        H285   1.084       .  S
C277        C278   1.403       .  A
C278        H286   1.084       .  S
C287        C288   1.400       .  A
C287        C292   1.404       .  A
C288        C289   1.391       .  A
C288        H301   1.083       .  S
C289        C290   1.413       .  A
C289        H302   1.077       .  S
C290        C296   1.428       .  A
C290        C291   1.422       .  A
C291        C293   1.401       .  A
C291        C292   1.408       .  A
C292        H303   1.084       .  S
C293        C294   1.392       .  A
C293        H304   1.084       .  S
C294        C295   1.400       .  A
C294        H305   1.084       .  S
C295        C296   1.423       .  A
C295        C300   1.408       .  A
C296        C297   1.413       .  A
C297        C298   1.391       .  A
C297        H306   1.076       .  S
C298        C299   1.399       .  A
C298        H307   1.084       .  S
C299        C300   1.402       .  A
C300        H308   1.084       .  S
C309        C310   1.402       .  A
C309        C314   1.400       .  A
C310        C311   1.394       .  A
C310        H323   1.083       .  S
C311        C312   1.413       .  A
C311        H324   1.077       .  S
C312        C318   1.429       .  A
C312        C313   1.423       .  A
C313        C315   1.399       .  A
C313        C314   1.405       .  A
C314        H325   1.085       .  S
C315        C316   1.389       .  A
C315        H326   1.084       .  S
C316        C317   1.399       .  A
C316        H327   1.084       .  S
C317        C318   1.421       .  A
C317        C322   1.402       .  A
C318        C319   1.416       .  A
C319        C320   1.396       .  A
C319        H328   1.077       .  S
C320        C321   1.399       .  A
C320        H329   1.083       .  S
C321        C322   1.402       .  A
C322        H330   1.085       .  S
C331        C332   1.399       .  A
C331        C336   1.401       .  A
C332        C333   1.398       .  A
C332        H345   1.084       .  S
C333        C334   1.416       .  A
C333        H346   1.077       .  S
C334        C340   1.431       .  A
C334        C335   1.422       .  A
C335        C337   1.400       .  A
C335        C336   1.405       .  A
C336        H347   1.085       .  S
C337        C338   1.391       .  A
C337        H348   1.084       .  S
C338        C339   1.400       .  A
C338        H349   1.084       .  S
C339        C340   1.423       .  A
C339        C344   1.406       .  A
C340        C341   1.415       .  A
C341        C342   1.397       .  A
C341        H350   1.078       .  S
C342        C343   1.400       .  A
C342        H351   1.083       .  S
C343        C344   1.401       .  A
C344        H352   1.085       .  S
C353        C354   1.402       .  A
C353        C358   1.400       .  A
C354        C355   1.392       .  A
C354        H367   1.083       .  S
C355        C356   1.411       .  A
C355        H368   1.076       .  S
C356        C357   1.424       .  A
C356       C1066   1.428   1_545  A
C357        C358   1.406       .  A
C357       C1063   1.398       .  A
C358        H369   1.084       .  S
C359        C360   1.389       .  A
C359       C1061   1.398       .  A
C359        H370   1.084       .  S
C360        C361   1.400       .  A
C360        H371   1.084       .  S
C361        C362   1.420       .  A
C361        C366   1.401       .  A
C362       C1060   1.428       .  A
C362       C1067   1.417       .  A
C363       C1066   1.417       .  A
C363       C1068   1.396       .  A
C363        H372   1.076   1_565  S
C364        C365   1.399       .  A
C364       C1067   1.396       .  A
C364        H373   1.083       .  S
C365        C366   1.403       .  A
C366        H374   1.084       .  S
C375        C376   1.398       .  A
C375        C380   1.397       .  A
C376       C1081   1.399       .  A
C376        H389   1.084       .  S
C377       C1080   1.399       .  A
C377       C1082   1.417       .  A
C377        H390   1.078       .  S
C378        C379   1.423       .  A
C378       C1081   1.417       .  A
C378       C1088   1.431       .  A
C379        C381   1.399       .  A
C379        C380   1.403       .  A
C380        H391   1.085       .  S
C381        C382   1.389       .  A
C381        H392   1.084       .  S
C382       C1087   1.399       .  A
C382        H393   1.084       .  S
C383        C384   1.422       .  A
C383        C388   1.404       .  A
C383       C1086   1.399       .  A
C384        C385   1.415       .  A
C384       C1082   1.431   1_545  A
C385        C386   1.399       .  A
C385        H394   1.078       .  S
C386        C387   1.402       .  A
C386        H395   1.083       .  S
C387        C388   1.401       .  A
C388        H396   1.085       .  S
C397        C398   1.402       .  A
C397        C402   1.402       .  A
C398        C399   1.396       .  A
C398        H411   1.083       .  S
C399        C400   1.414       .  A
C399        H412   1.077       .  S
C400        C401   1.423       .  A
C400       C1110   1.431       .  A
C401        C402   1.406       .  A
C401       C1107   1.399       .  A
C402        H413   1.084       .  S
C403        C404   1.390   1_565  A
C403       C1105   1.399       .  A
C403        H414   1.084       .  S
C404        C405   1.399       .  A
C404        H415   1.084       .  S
C405        C406   1.422       .  A
C405        C410   1.405       .  A
C406        C407   1.416       .  A
C406       C1104   1.431   1_545  A
C407        C408   1.397       .  A
C407        H416   1.077       .  S
C408        C409   1.400       .  A
C408        H417   1.084       .  S
C409        C410   1.400       .  A
C410        H418   1.085       .  S
C419        C420   1.401       .  A
C419        C424   1.402       .  A
C420        C421   1.395       .  A
C420        H433   1.084       .  S
C421        C422   1.415       .  A
C421        H434   1.077       .  S
C422        C428   1.431       .  A
C422        C423   1.423       .  A
C423        C425   1.400       .  A
C423        C424   1.408       .  A
C424        H435   1.084       .  S
C425        C426   1.392       .  A
C425        H436   1.084       .  S
C426        C427   1.400       .  A
C426        H437   1.084       .  S
C427        C428   1.423       .  A
C427        C432   1.408       .  A
C428        C429   1.414       .  A
C429        C430   1.395       .  A
C429        H438   1.076       .  S
C430        C431   1.401       .  A
C430        H439   1.083       .  S
C431        C432   1.404       .  A
C432        H440   1.084       .  S
C441        C442   1.398       .  A
C441        C446   1.402       .  A
C442        C443   1.394       .  A
C442        H455   1.083       .  S
C443        C444   1.416       .  A
C443        H456   1.077       .  S
C444        C450   1.426       .  A
C444        C445   1.421       .  A
C445        C447   1.399       .  A
C445        C446   1.401       .  A
C446        H457   1.084       .  S
C447        C448   1.389       .  A
C447        H458   1.084       .  S
C448        C449   1.398       .  A
C448        H459   1.084       .  S
C449        C450   1.423       .  A
C449        C454   1.404       .  A
C450        C451   1.412       .  A
C451        C452   1.391       .  A
C451        H460   1.077       .  S
C452        C453   1.401       .  A
C452        H461   1.083       .  S
C453        C454   1.400       .  A
C454        H462   1.085       .  S
C463        C464   1.400       .  A
C463        C468   1.401       .  A
C464        C465   1.397       .  A
C464        H477   1.083       .  S
C465        C466   1.414       .  A
C465        H478   1.078       .  S
C466        C472   1.429       .  A
C466        C467   1.423       .  A
C467        C469   1.399       .  A
C467        C468   1.405       .  A
C468        H479   1.085       .  S
C469        C470   1.390       .  A
C469        H480   1.084       .  S
C470        C471   1.400       .  A
C470        H481   1.084       .  S
C471        C472   1.422       .  A
C471        C476   1.404       .  A
C472        C473   1.416       .  A
C473        C474   1.398       .  A
C473        H482   1.078       .  S
C474        C475   1.398       .  A
C474        H483   1.084       .  S
C475        C476   1.400       .  A
C476        H484   1.085       .  S
C485        C486   1.402       .  A
C485        C490   1.400       .  A
C486        C487   1.391       .  A
C486        H499   1.083       .  S
C487        C488   1.412       .  A
C487        H500   1.077       .  S
C488        C489   1.423       .  A
C488       C1198   1.426       .  A
C489        C490   1.404       .  A
C489       C1195   1.398       .  A
C490        H501   1.085       .  S
C491        C492   1.389       .  A
C491       C1193   1.398   1_545  A
C491        H502   1.084   1_545  S
C492        C493   1.399       .  A
C492        H503   1.084       .  S
C493        C494   1.421       .  A
C493        C498   1.401       .  A
C494        C495   1.415       .  A
C494       C1192   1.426   1_545  A
C495        C496   1.393       .  A
C495       H1208   1.077       .  S
C496        C497   1.399       .  A
C496        H505   1.083       .  S
C497        C498   1.401       .  A
C498        H506   1.085       .  S
H504       C1199   1.077       .  S
C507        C508   1.400       .  A
C507        C512   1.400       .  A
C508        C509   1.398       .  A
C508        H521   1.084       .  S
C509        C510   1.416       .  A
C509        H522   1.078       .  S
C510        C511   1.423       .  A
C510       C1220   1.431       .  A
C511        C513   1.400       .  A
C511        C512   1.406       .  A
C512        H523   1.085       .  S
C513        C514   1.390       .  A
C513        H524   1.084       .  S
C514       C1219   1.399       .  A
C514       H1229   1.084       .  S
C515        C516   1.422       .  A
C515        C520   1.406       .  A
C515       C1218   1.399   1_545  A
C516        C517   1.415       .  A
C516       C1214   1.431   1_545  A
C517        C518   1.399       .  A
C517        H526   1.078       .  S
C518        C519   1.401       .  A
C518        H527   1.083       .  S
C519        C520   1.401       .  A
C520        H528   1.085       .  S
H525       C1218   1.084   1_545  S
C529        C530   1.401       .  A
C529        C534   1.402       .  A
C530        C531   1.401       .  A
C530        H543   1.083       .  S
C531        C532   1.417       .  A
C531        H544   1.077       .  S
C532        C538   1.431       .  A
C532        C533   1.421       .  A
C533        C535   1.399       .  A
C533        C534   1.401       .  A
C534        H545   1.085       .  S
C535        C536   1.387       .  A
C535        H546   1.084       .  S
C536        C537   1.398       .  A
C536        H547   1.084       .  S
C537        C538   1.424       .  A
C537        C542   1.404       .  A
C538        C539   1.414       .  A
C539        C540   1.397       .  A
C539        H548   1.077       .  S
C540        C541   1.403       .  A
C540        H549   1.083       .  S
C541        C542   1.399       .  A
C542        H550   1.084       .  S
C551        C552   1.400       .  A
C551        C556   1.404       .  A
C552        C553   1.396       .  A
C552        H565   1.084       .  S
C553        C554   1.415       .  A
C553        H566   1.077       .  S
C554        C560   1.432       .  A
C554        C555   1.423       .  A
C555        C557   1.401       .  A
C555        C556   1.410       .  A
C556        H567   1.085       .  S
C557        C558   1.393       .  A
C557        H568   1.084       .  S
C558        C559   1.401       .  A
C558        H569   1.084       .  S
C559        C560   1.423       .  A
C559        C564   1.411       .  A
C560        C561   1.414       .  A
C561        C562   1.395       .  A
C561        H570   1.077       .  S
C562        C563   1.402       .  A
C562        H571   1.083       .  S
C563        C564   1.405       .  A
C564        H572   1.084       .  S
C573        C578   1.402       .  A
C573       C1982   1.401       .  A
C574        C575   1.397       .  A
C574       C1981   1.401       .  A
C574        H587   1.083       .  S
C575       C1984   1.415       .  A
C575        H588   1.077       .  S
C576        C577   1.422       .  A
C576       C1983   1.415       .  A
C576       C1286   1.430   1_556  A
C577        C579   1.399       .  A
C577        C578   1.404       .  A
C578        H589   1.085       .  S
C579       C1284   1.389   1_556  A
C579        H590   1.084       .  S
C580        C581   1.399       .  A
C580       C1283   1.389   1_544  A
C580        H591   1.084       .  S
C581        C582   1.422       .  A
C581        C586   1.403       .  A
C582       C1280   1.430   1_544  A
C582       C1991   1.416       .  A
C583        C584   1.397       .  A
C583       C1990   1.416       .  A
C583        H592   1.077       .  S
C584        C585   1.400       .  A
C584        H593   1.083       .  S
C585       C1994   1.401   1_455  A
C586       C1993   1.401       .  A
C586        H594   1.085       .  S
C595        C600   1.400   1_655  A
C595       C2004   1.398       .  A
C596        C597   1.396       .  A
C596       C2003   1.398       .  A
C596        H609   1.083       .  S
C597       C2006   1.416       .  A
C597        H610   1.077       .  S
C598        C604   1.427   1_556  A
C598        C599   1.422   1_655  A
C598       C2005   1.416       .  A
C599        C601   1.399       .  A
C599        C600   1.400       .  A
C600        H611   1.085       .  S
C601        C602   1.387   1_556  A
C601        H612   1.084       .  S
C602        C603   1.398       .  A
C602        H613   1.084       .  S
C603        C604   1.422   1_455  A
C603        C608   1.400       .  A
C604       C2013   1.414       .  A
C605        C606   1.394       .  A
C605       C2012   1.414       .  A
C605        H614   1.077       .  S
C606       C2015   1.400       .  A
C606        H615   1.083       .  S
C607        C608   1.400   1_655  A
C607       C2014   1.400       .  A
C608        H616   1.085       .  S
C617        C618   1.402       .  A
C617        C622   1.399       .  A
C618        C619   1.393       .  A
C618        H631   1.083       .  S
C619        C620   1.412       .  A
C619        H632   1.077       .  S
C620        C626   1.427       .  A
C620        C621   1.424       .  A
C621        C623   1.398       .  A
C621        C622   1.403       .  A
C622        H633   1.085       .  S
C623        C624   1.387       .  A
C623        H634   1.084       .  S
C624        C625   1.399       .  A
C624        H635   1.084       .  S
C625        C626   1.421       .  A
C625        C630   1.399       .  A
C626        C627   1.417       .  A
C627        C628   1.396       .  A
C627        H636   1.077       .  S
C628        C629   1.399       .  A
C628        H637   1.083       .  S
C629        C630   1.402       .  A
C630        H638   1.084       .  S
C639        C640   1.400       .  A
C639        C644   1.403       .  A
C640        C641   1.395       .  A
C640        H653   1.084       .  S
C641        C642   1.413       .  A
C641        H654   1.078       .  S
C642        C648   1.430       .  A
C642        C643   1.423       .  A
C643        C645   1.401       .  A
C643        C644   1.410       .  A
C644        H655   1.084       .  S
C645        C646   1.394       .  A
C645        H656   1.084       .  S
C646        C647   1.401       .  A
C646        H657   1.084       .  S
C647        C648   1.423       .  A
C647        C652   1.410       .  A
C648        C649   1.415       .  A
C649        C650   1.395       .  A
C649        H658   1.078       .  S
C650        C651   1.397       .  A
C650        H659   1.084       .  S
C651        C652   1.401       .  A
C652        H660   1.085       .  S
C661        C662   1.398       .  A
C661        C666   1.402       .  A
C662        C663   1.394       .  A
C662        H675   1.083       .  S
C663        C664   1.416       .  A
C663        H676   1.076       .  S
C664       C1374   1.426   1_545  A
C664       C1369   1.421       .  A
C665        C667   1.400       .  A
C665       C1368   1.421       .  A
C665       C1370   1.400       .  A
C666       C1369   1.400       .  A
C666        H677   1.084       .  S
C667        C668   1.388       .  A
C667        H678   1.084       .  S
C668        C669   1.398       .  A
C668        H679   1.084       .  S
C669        C670   1.423       .  A
C669        C674   1.403       .  A
C670        C671   1.412       .  A
C670       C1368   1.426       .  A
C671        C672   1.391       .  A
C671       H1384   1.077       .  S
C672        C673   1.400       .  A
C672        H681   1.083       .  S
C673        C674   1.400       .  A
C674        H682   1.085       .  S
H680       C1375   1.077       .  S
C683        C684   1.397       .  A
C683        C688   1.400       .  A
C684       C1389   1.396   1_545  A
C684        H697   1.084       .  S
C685       C1388   1.396       .  A
C685       C1390   1.415       .  A
C685        H698   1.078       .  S
C686        C687   1.423       .  A
C686       C1389   1.415   1_545  A
C686       C1396   1.429   1_545  A
C687        C689   1.401       .  A
C687        C688   1.409       .  A
C688        H699   1.085       .  S
C689        C690   1.393       .  A
C689        H700   1.084       .  S
C690       C1395   1.400   1_545  A
C690        H701   1.084       .  S
C691        C692   1.423       .  A
C691        C696   1.409       .  A
C691       C1394   1.400       .  A
C692        C693   1.413       .  A
C692       C1390   1.429       .  A
C693        C694   1.394       .  A
C693        H702   1.078       .  S
C694        C695   1.401       .  A
C694        H703   1.084       .  S
C695        C696   1.402       .  A
C696        H704   1.085       .  S
O705        C720   1.259       .  A
O705       Al713   1.892       .  S
C706        O716   1.260       .  A
C706        O707   1.261       .  A
C706       C1333   1.476       .  S
O707       Al709   1.903   1_455  S
O708        C710   1.262       .  A
O708      Al2117   1.908       .  S
Al709      O2116   1.908       .  S
Al709       O717   1.912   1_655  S
Al709      O2127   1.900       .  S
Al709       O718   1.779       .  S
C710        O723   1.266       .  A
C710       C1355   1.473       .  S
O711       C2129   1.260       .  A
O711       Al713   1.893       .  S
O712       C2133   1.261       .  A
O712       Al722   1.892       .  S
Al713       O726   1.917       .  S
Al713       O723   1.926       .  S
Al713      O2126   1.784       .  S
O714        C721   1.260   1_455  A
O714       Al722   1.899       .  S
O715        C724   1.264       .  A
O715       Al722   1.915       .  S
O716       Al722   1.897       .  S
O717        C724   1.264       .  A
O718      Al2121   1.784       .  S
O718       Al722   1.781   1_655  S
O719        C720   1.260       .  A
O719      Al2117   1.900       .  S
C720       C1377   1.474       .  S
C721       O2119   1.260       .  A
C721       C1299   1.471       .  S
C724       C1399   1.478       .  S
C725       O2120   1.261       .  A
C725        O726   1.264       .  A
C725       C1277   1.480       .  S
O727        C742   1.261       .  A
O727       Al735   1.901       .  S
C728        O738   1.260       .  A
C728        O729   1.260       .  A
C728       C1365   1.474       .  S
O729       Al731   1.899       .  S
O730        C732   1.262       .  A
O730       Al731   1.910       .  S
Al731       O739   1.904       .  S
Al731       O741   1.900       .  S
Al731       O740   1.783       .  S
C732        O745   1.264       .  A
C732       C1343   1.480       .  S
O733        C743   1.263       .  A
O733       Al735   1.908       .  S
O734        C747   1.262       .  A
O734       Al744   1.905       .  S
Al735       O748   1.905       .  S
Al735       O745   1.917       .  S
Al735       O740   1.782       .  S
O736        C743   1.265       .  A
O736       Al744   1.916       .  S
O737        C746   1.264       .  A
O737       Al744   1.925       .  S
O738       Al744   1.894       .  S
O739        C746   1.261       .  A
O740       Al744   1.783       .  S
O741        C742   1.260       .  A
C742       C1321   1.476       .  S
C743       C1267   1.487       .  S
C746       C1387   1.472       .  S
C747        O748   1.262       .  A
C747       C1233   1.481       .  S
O749        C764   1.260       .  A
O749       Al757   1.901       .  S
C750        O760   1.258       .  A
C750        O751   1.259       .  A
C750       C1145   1.474       .  S
O751       Al753   1.899       .  S
O752        C754   1.261       .  A
O752       Al753   1.891       .  S
Al753       O761   1.896       .  S
Al753       O763   1.892       .  S
Al753       O762   1.792       .  S
C754        O767   1.265       .  A
C754       C1167   1.476       .  S
O755        C765   1.260       .  A
O755       Al757   1.898       .  S
O756        C769   1.257       .  A
O756       Al766   1.880       .  S
Al757       O770   1.924       .  S
Al757       O767   1.920       .  S
Al757       O762   1.792       .  S
O758        C765   1.262       .  A
O758       Al766   1.911       .  S
O759        C768   1.264       .  A
O759       Al766   1.917       .  S
O760       Al766   1.890       .  S
O761        C768   1.261       .  A
O762       Al766   1.785       .  S
O763        C764   1.258       .  A
C764       C1189   1.476       .  S
C765       C1135   1.484       .  S
C768       C1211   1.477       .  S
C769        O770   1.264       .  A
C769       C1101   1.482       .  S
O771        C786   1.259       .  A
O771      Al2187   1.899       .  S
C772        O782   1.256       .  A
C772        O773   1.258       .  A
C772       C1201   1.474       .  S
O773      Al2183   1.901       .  S
O774        C776   1.260       .  A
O774      Al2183   1.886       .  S
Al775      O2181   1.901       .  S
Al775      O2182   1.886       .  S
Al775       O783   1.892   1_655  S
Al775       O785   1.890   1_655  S
Al775       O784   1.795       .  S
C776        O789   1.265       .  A
C776       C1179   1.473       .  S
O777        C787   1.259       .  A
O777       Al779   1.897       .  S
O778        C791   1.257       .  A
O778       Al788   1.881   1_455  S
Al779      O2179   1.899       .  S
Al779      O2200   1.919       .  S
Al779       O789   1.922       .  S
Al779      O2192   1.793       .  S
O780        C787   1.262       .  A
O780      Al2196   1.913       .  S
O781        C790   1.265       .  A
O781       Al788   1.925   1_455  S
O782      Al2196   1.887       .  S
O783        C790   1.260       .  A
O784      Al2187   1.793   1_655  S
O784       Al788   1.788       .  S
O785        C786   1.257       .  A
C786       C1157   1.475       .  S
C787       C1255   1.483       .  S
Al788      O2188   1.913       .  S
Al788      O2190   1.887       .  S
C790       C1223   1.479       .  S
C791        O792   1.264       .  A
C791       C1245   1.480       .  S
O792      Al2187   1.919       .  S
O793        C808   1.260       .  A
O793       Al801   1.904       .  S
C794        O804   1.258       .  A
C794        O795   1.258       .  A
C794       C1025   1.477       .  S
O795       Al797   1.900       .  S
O796        C798   1.260       .  A
O796       Al797   1.891       .  S
Al797       O805   1.891       .  S
Al797       O807   1.888       .  S
Al797       O806   1.796       .  S
C798        O811   1.264       .  A
C798       C1035   1.476       .  S
O799        C809   1.260       .  A
O799       Al801   1.899       .  S
O800        C813   1.259       .  A
O800       Al810   1.893       .  S
Al801       O814   1.910       .  S
Al801       O811   1.918       .  S
Al801       O806   1.794       .  S
O802        C809   1.261       .  A
O802       Al810   1.903       .  S
O803        C812   1.264       .  A
O803       Al810   1.919       .  S
O804       Al810   1.895       .  S
O805        C812   1.260       .  A
O806       Al810   1.792       .  S
O807        C808   1.257       .  A
C808       C1057   1.478       .  S
C809       C1123   1.481       .  S
C812       C1091   1.481       .  S
C813        O814   1.262       .  A
C813       C1113   1.477       .  S
O815        C830   1.260       .  A
O815      Al2231   1.899       .  S
C816        O826   1.260       .  A
C816        O817   1.259       .  A
C816       C1013   1.479       .  S
O817      Al2227   1.896       .  S
O818        C820   1.259       .  A
O818      Al2227   1.889       .  S
Al819      O2225   1.896       .  S
Al819      O2226   1.889       .  S
Al819       O827   1.893       .  S
Al819       O829   1.894       .  S
Al819      O2236   1.794       .  S
C820        O833   1.262       .  A
C820       C1079   1.470       .  S
O821        C831   1.259       .  A
O821       Al823   1.890       .  S
O822        C835   1.259       .  A
O822       Al832   1.897       .  S
Al823      O2223   1.899   1_455  S
Al823      O2244   1.901   1_455  S
Al823       O833   1.914       .  S
Al823       O828   1.794       .  S
O824        C831   1.262       .  A
O824      Al2240   1.906       .  S
O825        C834   1.262       .  A
O825       Al832   1.914       .  S
O826      Al2240   1.900       .  S
O827        C834   1.260       .  A
O828      Al2227   1.794       .  S
O828      Al2240   1.793       .  S
O829        C830   1.258       .  A
C830       C1069   1.477       .  S
C831        C981   1.476       .  S
Al832      O2232   1.906       .  S
Al832      O2234   1.900       .  S
Al832      O2236   1.793       .  S
C834       C1047   1.477       .  S
C835        O836   1.261       .  A
C835        C991   1.480       .  S
O836      Al2231   1.901       .  S
O837        C852   1.260       .  A
O837       Al845   1.887       .  S
C838        O848   1.257       .  A
C838        O839   1.260       .  A
C838        C937   1.470       .  S
O839      Al2249   1.901       .  S
O840        C842   1.259       .  A
O840       Al841   1.894   1_455  S
Al841      O2247   1.901       .  S
Al841      O2257   1.888       .  S
Al841       O851   1.907   1_655  S
Al841       O850   1.782       .  S
C842        O855   1.263       .  A
C842        C959   1.468       .  S
O843        C853   1.262       .  A
O843       Al845   1.895       .  S
O844       C2265   1.258       .  A
O844       Al854   1.882       .  S
Al845       O858   1.913       .  S
Al845       O855   1.919       .  S
Al845       O850   1.784   1_455  S
O846       C2261   1.264       .  A
O846       Al854   1.913       .  S
O847        C856   1.264       .  A
O847       Al854   1.919       .  S
O848       Al854   1.880       .  S
O849        C856   1.260       .  A
O849      Al2249   1.888       .  S
O850      Al2262   1.781       .  S
O851        C852   1.263       .  A
C852        C881   1.471       .  S
C853       O2254   1.264   1_455  A
C853       C1289   1.478       .  S
Al854      O2258   1.781       .  S
C856        C915   1.478       .  S
C857       O2252   1.258       .  A
C857        O858   1.263   1_655  A
C857       C1311   1.474       .  S
O859        C874   1.257       .  A
O859       Al867   1.896       .  S
C860        O870   1.262       .  A
C860        O861   1.262       .  A
C860        C925   1.471       .  S
O861       Al863   1.901       .  S
O862        C864   1.261       .  A
O862       Al863   1.894       .  S
Al863       O871   1.910       .  S
Al863       O873   1.887       .  S
Al863       O872   1.787       .  S
C864        O877   1.264       .  A
C864        C903   1.467       .  S
O865        C875   1.257       .  A
O865       Al867   1.899       .  S
O866        C879   1.263       .  A
O866       Al876   1.896       .  S
Al867       O880   1.906       .  S
Al867       O877   1.908       .  S
Al867       O872   1.781       .  S
O868        C875   1.257       .  A
O868       Al876   1.895       .  S
O869        C878   1.261       .  A
O869       Al876   1.909       .  S
O870       Al876   1.894       .  S
O871        C878   1.262       .  A
O872       Al876   1.786       .  S
O873        C874   1.255       .  A
C874        C893   1.470       .  S
C875       C1003   1.475       .  S
C878        C947   1.471       .  S
C879        O880   1.266       .  A
C879        C969   1.477       .  S
C881        C882   1.399       .  A
C881        C886   1.399       .  A
C882        C883   1.392       .  A
C882        H895   1.083       .  S
C883        C884   1.413       .  A
C883        H896   1.077       .  S
C884        C890   1.426       .  A
C884        C885   1.423       .  A
C885        C887   1.398       .  A
C885        C886   1.402       .  A
C886        H897   1.085       .  S
C887        C888   1.388       .  A
C887        H898   1.084       .  S
C888        C889   1.399       .  A
C888        H899   1.084       .  S
C889        C890   1.421       .  A
C889        C894   1.400       .  A
C890        C891   1.416       .  A
C891        C892   1.394       .  A
C891        H900   1.076       .  S
C892        C893   1.397       .  A
C892        H901   1.084       .  S
C893        C894   1.401       .  A
C894        H902   1.085       .  S
C903        C904   1.396       .  A
C903        C908   1.398       .  A
C904        C905   1.394       .  A
C904        H917   1.084       .  S
C905        C906   1.415       .  A
C905        H918   1.077       .  S
C906        C912   1.428       .  A
C906        C907   1.424       .  A
C907        C909   1.399       .  A
C907        C908   1.406       .  A
C908        H919   1.085       .  S
C909        C910   1.390       .  A
C909        H920   1.084       .  S
C910        C911   1.400       .  A
C910        H921   1.084       .  S
C911        C912   1.422       .  A
C911        C916   1.405       .  A
C912        C913   1.415       .  A
C913        C914   1.395       .  A
C913        H922   1.077       .  S
C914        C915   1.400       .  A
C914        H923   1.083       .  S
C915        C916   1.402       .  A
C916        H924   1.085       .  S
C925        C926   1.400       .  A
C925        C930   1.400       .  A
C926        C927   1.388       .  A
C926        H939   1.083       .  S
C927        C928   1.411       .  A
C927        H940   1.076       .  S
C928        C929   1.423       .  A
C929        C930   1.402       .  A
C930        H941   1.084       .  S
C931        C932   1.389       .  A
C931        H942   1.084       .  S
C932        C933   1.399       .  A
C932        H943   1.084       .  S
C933        C934   1.421       .  A
C933        C938   1.400       .  A
C934        C935   1.415       .  A
C935        C936   1.390       .  A
C936        C937   1.398       .  A
C936        H945   1.084       .  S
C937        C938   1.401       .  A
C938        H946   1.084       .  S
C947        C948   1.399       .  A
C947        C952   1.399       .  A
C948        H961   1.084       .  S
C949        H962   1.078       .  S
C950        C951   1.423       .  A
C951        C953   1.400       .  A
C951        C952   1.407       .  A
C952        H963   1.085       .  S
C953        C954   1.392       .  A
C953        H964   1.084       .  S
C954        H965   1.084       .  S
C955        C956   1.422       .  A
C955        C960   1.405       .  A
C956        C957   1.415       .  A
C957        C958   1.394       .  A
C957        H966   1.078       .  S
C958        C959   1.397       .  A
C958        H967   1.084       .  S
C959        C960   1.399       .  A
C960        H968   1.085       .  S
C969        C970   1.400       .  A
C969        C974   1.403       .  A
C970        C971   1.390       .  A
C970        H983   1.083       .  S
C971        C972   1.413       .  A
C971        H984   1.076       .  S
C972        C978   1.427       .  A
C972        C973   1.423       .  A
C973        C975   1.400       .  A
C973        C974   1.406       .  A
C974        H985   1.084       .  S
C975        C976   1.392       .  A
C975        H986   1.084       .  S
C976        C977   1.400       .  A
C976        H987   1.084       .  S
C977        C978   1.422       .  A
C977        C982   1.406       .  A
C978        C979   1.414       .  A
C979        C980   1.392       .  A
C979        H988   1.076       .  S
C980        C981   1.398       .  A
C980        H989   1.084       .  S
C981        C982   1.403       .  A
C982        H990   1.084       .  S
C991        C992   1.400       .  A
C991        C996   1.404       .  A
C992        C993   1.391       .  A
C992       H1005   1.083       .  S
C993        C994   1.413       .  A
C993       H1006   1.077       .  S
C994       C1000   1.428       .  A
C994        C995   1.422       .  A
C995        C997   1.401       .  A
C995        C996   1.408       .  A
C996       H1007   1.084       .  S
C997        C998   1.392       .  A
C997       H1008   1.084       .  S
C998        C999   1.400       .  A
C998       H1009   1.084       .  S
C999       C1000   1.423       .  A
C999       C1004   1.408       .  A
C1000      C1001   1.413       .  A
C1001      C1002   1.391       .  A
C1001      H1010   1.076       .  S
C1002      C1003   1.399       .  A
C1002      H1011   1.084       .  S
C1003      C1004   1.402       .  A
C1004      H1012   1.084       .  S
C1013      C1014   1.402       .  A
C1013      C1018   1.400       .  A
C1014      C1015   1.394       .  A
C1014      H1027   1.083       .  S
C1015      C1016   1.413       .  A
C1015      H1028   1.077       .  S
C1016      C1022   1.429       .  A
C1016      C1017   1.423       .  A
C1017      C1019   1.399       .  A
C1017      C1018   1.405       .  A
C1018      H1029   1.085       .  S
C1019      C1020   1.389       .  A
C1019      H1030   1.084       .  S
C1020      C1021   1.399       .  A
C1020      H1031   1.084       .  S
C1021      C1022   1.421       .  A
C1021      C1026   1.402       .  A
C1022      C1023   1.416       .  A
C1023      C1024   1.396       .  A
C1023      H1032   1.077       .  S
C1024      C1025   1.399       .  A
C1024      H1033   1.083       .  S
C1025      C1026   1.402       .  A
C1026      H1034   1.085       .  S
C1035      C1036   1.399       .  A
C1035      C1040   1.401       .  A
C1036      C1037   1.398       .  A
C1036      H1049   1.084       .  S
C1037      C1038   1.416       .  A
C1037      H1050   1.077       .  S
C1038      C1044   1.431       .  A
C1038      C1039   1.422       .  A
C1039      C1041   1.400       .  A
C1039      C1040   1.405       .  A
C1040      H1051   1.085       .  S
C1041      C1042   1.391       .  A
C1041      H1052   1.084       .  S
C1042      C1043   1.400       .  A
C1042      H1053   1.084       .  S
C1043      C1044   1.423       .  A
C1043      C1048   1.406       .  A
C1044      C1045   1.415       .  A
C1045      C1046   1.397       .  A
C1045      H1054   1.078       .  S
C1046      C1047   1.400       .  A
C1046      H1055   1.083       .  S
C1047      C1048   1.401       .  A
C1048      H1056   1.085       .  S
C1057      C1058   1.402       .  A
C1057      C1062   1.400       .  A
C1058      C1059   1.392       .  A
C1058      H1071   1.083       .  S
C1059      C1060   1.411       .  A
C1059      H1072   1.076       .  S
C1060      C1061   1.424       .  A
C1061      C1062   1.406       .  A
C1062      H1073   1.084       .  S
C1063      C1064   1.389   1_545  A
C1063      H1074   1.084       .  S
C1064      C1065   1.400       .  A
C1064      H1075   1.084       .  S
C1065      C1066   1.420       .  A
C1065      C1070   1.401       .  A
C1067      H1076   1.076       .  S
C1068      C1069   1.399       .  A
C1068      H1077   1.084       .  S
C1069      C1070   1.403       .  A
C1070      H1078   1.084       .  S
C1079      C1080   1.398       .  A
C1079      C1084   1.397       .  A
C1080      H1093   1.084       .  S
C1081      H1094   1.078       .  S
C1082      C1083   1.423       .  A
C1083      C1085   1.399       .  A
C1083      C1084   1.403       .  A
C1084      H1095   1.085       .  S
C1085      C1086   1.389   1_565  A
C1085      H1096   1.084       .  S
C1086      H1097   1.084       .  S
C1087      C1088   1.422       .  A
C1087      C1092   1.404       .  A
C1088      C1089   1.415       .  A
C1089      C1090   1.399       .  A
C1089      H1098   1.078       .  S
C1090      C1091   1.402       .  A
C1090      H1099   1.083       .  S
C1091      C1092   1.401       .  A
C1092      H1100   1.085       .  S
C1101      C1102   1.402       .  A
C1101      C1106   1.402       .  A
C1102      C1103   1.396       .  A
C1102      H1115   1.083       .  S
C1103      C1104   1.414       .  A
C1103      H1116   1.077       .  S
C1104      C1105   1.423       .  A
C1105      C1106   1.406       .  A
C1106      H1117   1.084       .  S
C1107      C1108   1.390       .  A
C1107      H1118   1.084       .  S
C1108      C1109   1.399       .  A
C1108      H1119   1.084       .  S
C1109      C1110   1.422       .  A
C1109      C1114   1.405       .  A
C1110      C1111   1.416       .  A
C1111      C1112   1.397       .  A
C1111      H1120   1.077       .  S
C1112      C1113   1.400       .  A
C1112      H1121   1.084       .  S
C1113      C1114   1.400       .  A
C1114      H1122   1.085       .  S
C1123      C1124   1.401       .  A
C1123      C1128   1.402       .  A
C1124      C1125   1.395       .  A
C1124      H1137   1.084       .  S
C1125      C1126   1.415       .  A
C1125      H1138   1.077       .  S
C1126      C1132   1.431       .  A
C1126      C1127   1.423       .  A
C1127      C1129   1.400       .  A
C1127      C1128   1.408       .  A
C1128      H1139   1.084       .  S
C1129      C1130   1.392       .  A
C1129      H1140   1.084       .  S
C1130      C1131   1.400       .  A
C1130      H1141   1.084       .  S
C1131      C1132   1.423       .  A
C1131      C1136   1.408       .  A
C1132      C1133   1.414       .  A
C1133      C1134   1.395       .  A
C1133      H1142   1.076       .  S
C1134      C1135   1.401       .  A
C1134      H1143   1.083       .  S
C1135      C1136   1.404       .  A
C1136      H1144   1.084       .  S
C1145      C1146   1.398       .  A
C1145      C1150   1.402       .  A
C1146      C1147   1.394       .  A
C1146      H1159   1.083       .  S
C1147      C1148   1.416       .  A
C1147      H1160   1.077       .  S
C1148      C1154   1.426       .  A
C1148      C1149   1.421       .  A
C1149      C1151   1.399       .  A
C1149      C1150   1.401       .  A
C1150      H1161   1.084       .  S
C1151      C1152   1.389       .  A
C1151      H1162   1.084       .  S
C1152      C1153   1.398       .  A
C1152      H1163   1.084       .  S
C1153      C1154   1.423       .  A
C1153      C1158   1.404       .  A
C1154      C1155   1.412       .  A
C1155      C1156   1.391       .  A
C1155      H1164   1.077       .  S
C1156      C1157   1.401       .  A
C1156      H1165   1.083       .  S
C1157      C1158   1.400       .  A
C1158      H1166   1.085       .  S
C1167      C1168   1.400       .  A
C1167      C1172   1.401       .  A
C1168      C1169   1.397       .  A
C1168      H1181   1.083       .  S
C1169      C1170   1.414       .  A
C1169      H1182   1.078       .  S
C1170      C1176   1.429       .  A
C1170      C1171   1.423       .  A
C1171      C1173   1.399       .  A
C1171      C1172   1.405       .  A
C1172      H1183   1.085       .  S
C1173      C1174   1.390       .  A
C1173      H1184   1.084       .  S
C1174      C1175   1.400       .  A
C1174      H1185   1.084       .  S
C1175      C1176   1.422       .  A
C1175      C1180   1.404       .  A
C1176      C1177   1.416       .  A
C1177      C1178   1.398       .  A
C1177      H1186   1.078       .  S
C1178      C1179   1.398       .  A
C1178      H1187   1.084       .  S
C1179      C1180   1.400       .  A
C1180      H1188   1.085       .  S
C1189      C1190   1.402       .  A
C1189      C1194   1.400       .  A
C1190      C1191   1.391       .  A
C1190      H1203   1.083       .  S
C1191      C1192   1.412       .  A
C1191      H1204   1.077       .  S
C1192      C1193   1.423       .  A
C1193      C1194   1.404       .  A
C1194      H1205   1.085       .  S
C1195      C1196   1.389       .  A
C1195      H1206   1.084       .  S
C1196      C1197   1.399       .  A
C1196      H1207   1.084       .  S
C1197      C1198   1.421       .  A
C1197      C1202   1.401       .  A
C1198      C1199   1.415       .  A
C1199      C1200   1.393       .  A
C1200      C1201   1.399       .  A
C1200      H1209   1.083       .  S
C1201      C1202   1.401       .  A
C1202      H1210   1.085       .  S
C1211      C1212   1.400       .  A
C1211      C1216   1.400       .  A
C1212      C1213   1.398       .  A
C1212      H1225   1.084       .  S
C1213      C1214   1.416       .  A
C1213      H1226   1.078   1_565  S
C1214      C1215   1.423       .  A
C1215      C1217   1.400       .  A
C1215      C1216   1.406       .  A
C1216      H1227   1.085       .  S
C1217      C1218   1.390       .  A
C1217      H1228   1.084       .  S
C1219      C1220   1.422       .  A
C1219      C1224   1.406       .  A
C1220      C1221   1.415       .  A
C1221      C1222   1.399       .  A
C1221      H1230   1.078       .  S
C1222      C1223   1.401       .  A
C1222      H1231   1.083       .  S
C1223      C1224   1.401       .  A
C1224      H1232   1.085       .  S
C1233      C1234   1.401       .  A
C1233      C1238   1.402       .  A
C1234      C1235   1.401       .  A
C1234      H1247   1.083       .  S
C1235      C1236   1.417       .  A
C1235      H1248   1.077       .  S
C1236      C1242   1.431       .  A
C1236      C1237   1.421       .  A
C1237      C1239   1.399       .  A
C1237      C1238   1.401       .  A
C1238      H1249   1.085       .  S
C1239      C1240   1.387       .  A
C1239      H1250   1.084       .  S
C1240      C1241   1.398       .  A
C1240      H1251   1.084       .  S
C1241      C1242   1.424       .  A
C1241      C1246   1.404       .  A
C1242      C1243   1.414       .  A
C1243      C1244   1.397       .  A
C1243      H1252   1.077       .  S
C1244      C1245   1.403       .  A
C1244      H1253   1.083       .  S
C1245      C1246   1.399       .  A
C1246      H1254   1.084       .  S
C1255      C1256   1.400       .  A
C1255      C1260   1.404       .  A
C1256      C1257   1.396       .  A
C1256      H1269   1.083       .  S
C1257      C1258   1.415       .  A
C1257      H1270   1.077       .  S
C1258      C1264   1.432       .  A
C1258      C1259   1.423       .  A
C1259      C1261   1.401       .  A
C1259      C1260   1.410       .  A
C1260      H1271   1.085       .  S
C1261      C1262   1.393       .  A
C1261      H1272   1.084       .  S
C1262      C1263   1.401       .  A
C1262      H1273   1.084       .  S
C1263      C1264   1.423       .  A
C1263      C1268   1.411       .  A
C1264      C1265   1.414       .  A
C1265      C1266   1.395       .  A
C1265      H1274   1.077       .  S
C1266      C1267   1.402       .  A
C1266      H1275   1.083       .  S
C1267      C1268   1.405       .  A
C1268      H1276   1.084       .  S
C1277      C2686   1.401       .  A
C1277      C1282   1.402       .  A
C1278      C2685   1.401       .  A
C1278      C1279   1.397       .  A
C1278      H1291   1.083       .  S
C1279      C2688   1.415       .  A
C1279      H1292   1.077       .  S
C1280      C2687   1.415       .  A
C1280      C1281   1.422       .  A
C1281      C1283   1.399       .  A
C1281      C1282   1.404       .  A
C1282      H1293   1.085       .  S
C1283      H1294   1.084       .  S
C1284      C1285   1.399       .  A
C1284      H1295   1.084       .  S
C1285      C1286   1.422       .  A
C1285      C1290   1.403       .  A
C1286      C2695   1.416       .  A
C1287      C2694   1.416       .  A
C1287      C1288   1.397       .  A
C1287      H1296   1.077       .  S
C1288      C1289   1.400       .  A
C1288      H1297   1.083       .  S
C1289      C2698   1.401   1_455  A
C1290      C2697   1.401       .  A
C1290      H1298   1.085       .  S
C1299      C2708   1.398       .  A
C1299      C1304   1.400   1_655  A
C1300      C2707   1.398       .  A
C1300      C1301   1.396       .  A
C1300      H1313   1.083       .  S
C1301      C2710   1.416       .  A
C1301      H1314   1.077       .  S
C1302      C2709   1.416       .  A
C1302      C1308   1.427   1_556  A
C1302      C1303   1.422   1_655  A
C1303      C1305   1.399       .  A
C1303      C1304   1.400       .  A
C1304      H1315   1.085       .  S
C1305      C1306   1.387   1_556  A
C1305      H1316   1.084       .  S
C1306      C1307   1.398       .  A
C1306      H1317   1.084       .  S
C1307      C1308   1.422   1_455  A
C1307      C1312   1.400       .  A
C1308      C2717   1.414       .  A
C1309      C2716   1.414       .  A
C1309      C1310   1.394       .  A
C1309      H1318   1.077       .  S
C1310      C2719   1.400       .  A
C1310      H1319   1.083       .  S
C1311      C2718   1.400       .  A
C1311      C1312   1.400   1_655  A
C1312      H1320   1.085       .  S
C1321      C1322   1.402       .  A
C1321      C1326   1.399       .  A
C1322      C1323   1.393       .  A
C1322      H1335   1.083       .  S
C1323      C1324   1.412       .  A
C1323      H1336   1.077       .  S
C1324      C1330   1.427       .  A
C1324      C1325   1.424       .  A
C1325      C1327   1.398       .  A
C1325      C1326   1.403       .  A
C1326      H1337   1.085       .  S
C1327      C1328   1.387       .  A
C1327      H1338   1.084       .  S
C1328      C1329   1.399       .  A
C1328      H1339   1.084       .  S
C1329      C1330   1.421       .  A
C1329      C1334   1.399       .  A
C1330      C1331   1.417       .  A
C1331      C1332   1.396       .  A
C1331      H1340   1.077       .  S
C1332      C1333   1.399       .  A
C1332      H1341   1.083       .  S
C1333      C1334   1.402       .  A
C1334      H1342   1.084       .  S
C1343      C1344   1.400       .  A
C1343      C1348   1.403       .  A
C1344      C1345   1.395       .  A
C1344      H1357   1.084       .  S
C1345      C1346   1.413       .  A
C1345      H1358   1.078       .  S
C1346      C1352   1.430       .  A
C1346      C1347   1.423       .  A
C1347      C1349   1.401       .  A
C1347      C1348   1.410       .  A
C1348      H1359   1.085       .  S
C1349      C1350   1.394       .  A
C1349      H1360   1.084       .  S
C1350      C1351   1.401       .  A
C1350      H1361   1.084       .  S
C1351      C1352   1.423       .  A
C1351      C1356   1.410       .  A
C1352      C1353   1.415       .  A
C1353      C1354   1.395       .  A
C1353      H1362   1.078       .  S
C1354      C1355   1.397       .  A
C1354      H1363   1.084       .  S
C1355      C1356   1.401       .  A
C1356      H1364   1.085       .  S
C1365      C1366   1.398       .  A
C1365      C1370   1.402       .  A
C1366      C1367   1.394       .  A
C1366      H1379   1.083       .  S
C1367      C1368   1.416       .  A
C1367      H1380   1.076       .  S
C1369      C1371   1.400       .  A
C1370      H1381   1.084       .  S
C1371      C1372   1.388       .  A
C1371      H1382   1.084       .  S
C1372      C1373   1.398   1_545  A
C1372      H1383   1.084   1_545  S
C1373      C1374   1.423       .  A
C1373      C1378   1.403       .  A
C1374      C1375   1.412       .  A
C1375      C1376   1.391       .  A
C1376      C1377   1.400       .  A
C1376      H1385   1.083       .  S
C1377      C1378   1.400       .  A
C1378      H1386   1.085       .  S
C1387      C1388   1.397       .  A
C1387      C1392   1.400       .  A
C1388      H1401   1.084       .  S
C1389      H1402   1.078       .  S
C1390      C1391   1.423       .  A
C1391      C1393   1.401       .  A
C1391      C1392   1.409       .  A
C1392      H1403   1.085       .  S
C1393      C1394   1.393       .  A
C1393      H1404   1.084       .  S
C1394      H1405   1.084       .  S
C1395      C1396   1.423       .  A
C1395      C1400   1.409       .  A
C1396      C1397   1.413       .  A
C1397      C1398   1.394       .  A
C1397      H1406   1.078       .  S
C1398      C1399   1.401       .  A
C1398      H1407   1.084       .  S
C1399      C1400   1.402       .  A
C1400      H1408   1.085       .  S
O1409      C1424   1.259       .  A
O1409     Al1417   1.892       .  S
C1410      O1420   1.260       .  A
C1410      O1411   1.261       .  A
C1410      C2037   1.476       .  S
O1411     Al1413   1.903       .  S
O1412      C1414   1.262       .  A
Al1413     O1421   1.912       .  S
Al1413     O1422   1.779       .  S
C1414      O1427   1.266       .  A
C1414      C2059   1.473       .  S
O1415     Al1417   1.893       .  S
O1416     Al1426   1.892       .  S
Al1417     O1430   1.917       .  S
Al1417     O1427   1.926       .  S
O1418      C1425   1.260       .  A
O1418     Al1426   1.899       .  S
O1419      C1428   1.264       .  A
O1419     Al1426   1.915       .  S
O1420     Al1426   1.897       .  S
O1421      C1428   1.264       .  A
O1422     Al1426   1.781       .  S
O1423      C1424   1.260       .  A
C1424      C2081   1.474       .  S
C1425      C2003   1.471       .  S
C1428      C2103   1.478       .  S
C1429      O1430   1.264   1_455  A
C1429      C1981   1.480       .  S
O1431      C1446   1.261       .  A
O1431     Al1439   1.901       .  S
C1432      O1442   1.260       .  A
C1432      O1433   1.260       .  A
C1432      C2069   1.474       .  S
O1433     Al1435   1.899       .  S
O1434      C1436   1.262       .  A
O1434     Al1435   1.910       .  S
Al1435     O1443   1.904       .  S
Al1435     O1445   1.900       .  S
Al1435     O1444   1.783       .  S
C1436      O1449   1.264       .  A
C1436      C2047   1.480       .  S
O1437      C1447   1.263       .  A
O1437     Al1439   1.908       .  S
O1438      C1451   1.262       .  A
O1438     Al1448   1.905       .  S
Al1439     O1452   1.905       .  S
Al1439     O1449   1.917       .  S
Al1439     O1444   1.782       .  S
O1440      C1447   1.265       .  A
O1440     Al1448   1.916       .  S
O1441      C1450   1.264       .  A
O1441     Al1448   1.925       .  S
O1442     Al1448   1.894       .  S
O1443      C1450   1.261       .  A
O1444     Al1448   1.783       .  S
O1445      C1446   1.260       .  A
C1446      C2025   1.476       .  S
C1447      C1971   1.487       .  S
C1450      C2091   1.472       .  S
C1451      O1452   1.262       .  A
C1451      C1937   1.481       .  S
O1453      C1468   1.260       .  A
O1453     Al1461   1.901       .  S
C1454      O1464   1.258       .  A
C1454      O1455   1.259       .  A
C1454      C1849   1.474       .  S
O1455     Al1457   1.899       .  S
O1456      C1458   1.261       .  A
O1456     Al1457   1.891       .  S
Al1457     O1465   1.896       .  S
Al1457     O1467   1.892       .  S
Al1457     O1466   1.792       .  S
C1458      O1471   1.265       .  A
C1458      C1871   1.476       .  S
O1459      C1469   1.260       .  A
O1459     Al1461   1.898       .  S
O1460      C1473   1.257       .  A
O1460     Al1470   1.880       .  S
Al1461     O1474   1.924       .  S
Al1461     O1471   1.920       .  S
Al1461     O1466   1.792       .  S
O1462      C1469   1.262       .  A
O1462     Al1470   1.911       .  S
O1463      C1472   1.264       .  A
O1463     Al1470   1.917       .  S
O1464     Al1470   1.890       .  S
O1465      C1472   1.261       .  A
O1466     Al1470   1.785       .  S
O1467      C1468   1.258       .  A
C1468      C1893   1.476       .  S
C1469      C1839   1.484       .  S
C1472      C1915   1.477       .  S
C1473      O1474   1.264       .  A
C1473      C1805   1.482       .  S
O1475      C1490   1.259       .  A
C1476      O1486   1.256       .  A
C1476      O1477   1.258       .  A
C1476      C1905   1.474       .  S
O1478      C1480   1.260       .  A
Al1479     O1487   1.892       .  S
Al1479     O1489   1.890       .  S
Al1479     O1488   1.795       .  S
C1480      O1493   1.265       .  A
C1480      C1883   1.473       .  S
O1481      C1491   1.259       .  A
O1481     Al1483   1.897   1_655  S
O1482      C1495   1.257       .  A
O1482     Al1492   1.881       .  S
Al1483     O1493   1.922   1_455  S
O1484      C1491   1.262       .  A
O1485      C1494   1.265       .  A
O1485     Al1492   1.925       .  S
O1487      C1494   1.260       .  A
O1488     Al1492   1.788       .  S
O1489      C1490   1.257       .  A
C1490      C1861   1.475       .  S
C1491      C1959   1.483       .  S
C1494      C1927   1.479       .  S
C1495      O1496   1.264       .  A
C1495      C1949   1.480       .  S
O1497      C1512   1.260       .  A
O1497     Al1505   1.904       .  S
C1498      O1508   1.258       .  A
C1498      O1499   1.258       .  A
C1498      C1729   1.477       .  S
O1499     Al1501   1.900       .  S
O1500      C1502   1.260       .  A
O1500     Al1501   1.891       .  S
Al1501     O1509   1.891       .  S
Al1501     O1511   1.888       .  S
Al1501     O1510   1.796       .  S
C1502      O1515   1.264       .  A
C1502      C1739   1.476       .  S
O1503      C1513   1.260       .  A
O1503     Al1505   1.899       .  S
O1504      C1517   1.259       .  A
O1504     Al1514   1.893       .  S
Al1505     O1518   1.910       .  S
Al1505     O1515   1.918       .  S
Al1505     O1510   1.794       .  S
O1506      C1513   1.261       .  A
O1506     Al1514   1.903       .  S
O1507      C1516   1.264       .  A
O1507     Al1514   1.919       .  S
O1508     Al1514   1.895       .  S
O1509      C1516   1.260       .  A
O1510     Al1514   1.792       .  S
O1511      C1512   1.257       .  A
C1512      C1761   1.478       .  S
C1513      C1827   1.481       .  S
C1516      C1795   1.481       .  S
C1517      O1518   1.262       .  A
C1517      C1817   1.477       .  S
O1519      C1534   1.260       .  A
C1520      O1530   1.260       .  A
C1520      O1521   1.259       .  A
C1520      C1717   1.479       .  S
O1522      C1524   1.259       .  A
Al1523     O1531   1.893   1_455  S
Al1523     O1533   1.894   1_455  S
C1524      O1537   1.262       .  A
C1524      C1783   1.470       .  S
O1525      C1535   1.259       .  A
O1525     Al1527   1.890       .  S
O1526      C1539   1.259       .  A
O1526     Al1536   1.897   1_655  S
Al1527     O1537   1.914       .  S
Al1527     O1532   1.794       .  S
O1528      C1535   1.262       .  A
O1529      C1538   1.262       .  A
O1529     Al1536   1.914   1_655  S
O1531      C1538   1.260       .  A
O1533      C1534   1.258       .  A
C1534      C1773   1.477       .  S
C1535      C1685   1.476       .  S
C1538      C1751   1.477       .  S
C1539      O1540   1.261       .  A
C1539      C1695   1.480       .  S
O1541      C1556   1.260       .  A
O1541     Al1549   1.887       .  S
C1542      O1552   1.257       .  A
C1542      O1543   1.260       .  A
C1542      C1641   1.470       .  S
O1544      C1546   1.259       .  A
O1544     Al1545   1.894       .  S
Al1545     O1555   1.907       .  S
Al1545     O1554   1.782       .  S
C1546      O1559   1.263       .  A
C1546      C1663   1.468       .  S
O1547      C1557   1.262       .  A
O1547     Al1549   1.895       .  S
O1548     Al1558   1.882       .  S
Al1549     O1562   1.913       .  S
Al1549     O1559   1.919       .  S
Al1549     O1554   1.784       .  S
O1550     Al1558   1.913       .  S
O1551      C1560   1.264       .  A
O1551     Al1558   1.919       .  S
O1552     Al1558   1.880       .  S
O1553      C1560   1.260       .  A
O1555      C1556   1.263       .  A
C1556      C1585   1.471       .  S
C1557      C1993   1.478       .  S
C1560      C1619   1.478       .  S
C1561      O1562   1.263       .  A
C1561      C2015   1.474       .  S
O1563      C1578   1.257       .  A
O1563     Al1571   1.896       .  S
C1564      O1574   1.262       .  A
C1564      O1565   1.262       .  A
C1564      C1629   1.471       .  S
O1565     Al1567   1.901       .  S
O1566      C1568   1.261       .  A
O1566     Al1567   1.894       .  S
Al1567     O1575   1.910       .  S
Al1567     O1577   1.887       .  S
Al1567     O1576   1.787       .  S
C1568      O1581   1.264       .  A
C1568      C1607   1.467       .  S
O1569      C1579   1.257       .  A
O1569     Al1571   1.899       .  S
O1570      C1583   1.263       .  A
O1570     Al1580   1.896       .  S
Al1571     O1584   1.906       .  S
Al1571     O1581   1.908       .  S
Al1571     O1576   1.781       .  S
O1572      C1579   1.257       .  A
O1572     Al1580   1.895       .  S
O1573      C1582   1.261       .  A
O1573     Al1580   1.909       .  S
O1574     Al1580   1.894       .  S
O1575      C1582   1.262       .  A
O1576     Al1580   1.786       .  S
O1577      C1578   1.255       .  A
C1578      C1597   1.470       .  S
C1579      C1707   1.475       .  S
C1582      C1651   1.471       .  S
C1583      O1584   1.266       .  A
C1583      C1673   1.477       .  S
C1585      C1586   1.399       .  A
C1585      C1590   1.399       .  A
C1586      C1587   1.392       .  A
C1586      H1599   1.083       .  S
C1587      C1588   1.413       .  A
C1587      H1600   1.077       .  S
C1588      C1594   1.426       .  A
C1588      C1589   1.423       .  A
C1589      C1591   1.398       .  A
C1589      C1590   1.402       .  A
C1590      H1601   1.085       .  S
C1591      C1592   1.388       .  A
C1591      H1602   1.084       .  S
C1592      C1593   1.399       .  A
C1592      H1603   1.084       .  S
C1593      C1594   1.421       .  A
C1593      C1598   1.400       .  A
C1594      C1595   1.416       .  A
C1595      C1596   1.394       .  A
C1595      H1604   1.076       .  S
C1596      C1597   1.397       .  A
C1596      H1605   1.084       .  S
C1597      C1598   1.401       .  A
C1598      H1606   1.085       .  S
C1607      C1608   1.396       .  A
C1607      C1612   1.398       .  A
C1608      C1609   1.394       .  A
C1608      H1621   1.084       .  S
C1609      C1610   1.415       .  A
C1609      H1622   1.077       .  S
C1610      C1616   1.428       .  A
C1610      C1611   1.424       .  A
C1611      C1613   1.399       .  A
C1611      C1612   1.406       .  A
C1612      H1623   1.085       .  S
C1613      C1614   1.390       .  A
C1613      H1624   1.084       .  S
C1614      C1615   1.400       .  A
C1614      H1625   1.084       .  S
C1615      C1616   1.422       .  A
C1615      C1620   1.405       .  A
C1616      C1617   1.415       .  A
C1617      C1618   1.395       .  A
C1617      H1626   1.077       .  S
C1618      C1619   1.400       .  A
C1618      H1627   1.083       .  S
C1619      C1620   1.402       .  A
C1620      H1628   1.085       .  S
C1629      C1630   1.400       .  A
C1629      C1634   1.400       .  A
C1630      C1631   1.388       .  A
C1630      H1643   1.083       .  S
C1631      C1632   1.411       .  A
C1631      H1644   1.076       .  S
C1632      C2342   1.423       .  A
C1632      C1633   1.423       .  A
C1633      C2339   1.399       .  A
C1633      C1634   1.402       .  A
C1634      H1645   1.084       .  S
C1635      C2337   1.399       .  A
C1635      C1636   1.389   1_565  A
C1635      H1646   1.084       .  S
C1636      C1637   1.399       .  A
C1636      H1647   1.084       .  S
C1637      C1638   1.421       .  A
C1637      C1642   1.400       .  A
C1638      C2336   1.423   1_545  A
C1638      C1639   1.415       .  A
C1639      C1640   1.390       .  A
C1639      H2352   1.076       .  S
C1640      C1641   1.398       .  A
C1640      H1649   1.084       .  S
C1641      C1642   1.401       .  A
C1642      H1650   1.084       .  S
H1648      C2343   1.076       .  S
C1651      C1652   1.399       .  A
C1651      C1656   1.399       .  A
C1652      C2357   1.393       .  A
C1652      H1665   1.084       .  S
C1653      C2356   1.393   1_545  A
C1653      C2358   1.413   1_545  A
C1653      H1666   1.078       .  S
C1654      C2357   1.413       .  A
C1654      C2364   1.426       .  A
C1654      C1655   1.423       .  A
C1655      C1657   1.400       .  A
C1655      C1656   1.407       .  A
C1656      H1667   1.085       .  S
C1657      C1658   1.392       .  A
C1657      H1668   1.084       .  S
C1658      C2363   1.400       .  A
C1658      H1669   1.084       .  S
C1659      C2362   1.400   1_545  A
C1659      C1660   1.422       .  A
C1659      C1664   1.405       .  A
C1660      C2358   1.426   1_545  A
C1660      C1661   1.415       .  A
C1661      C1662   1.394       .  A
C1661      H1670   1.078       .  S
C1662      C1663   1.397       .  A
C1662      H1671   1.084       .  S
C1663      C1664   1.399       .  A
C1664      H1672   1.085       .  S
C1673      C1674   1.400       .  A
C1673      C1678   1.403       .  A
C1674      C1675   1.390       .  A
C1674      H1687   1.083       .  S
C1675      C1676   1.413       .  A
C1675      H1688   1.076       .  S
C1676      C1682   1.427       .  A
C1676      C1677   1.423       .  A
C1677      C1679   1.400       .  A
C1677      C1678   1.406       .  A
C1678      H1689   1.084       .  S
C1679      C1680   1.392       .  A
C1679      H1690   1.084       .  S
C1680      C1681   1.400       .  A
C1680      H1691   1.084       .  S
C1681      C1682   1.422       .  A
C1681      C1686   1.406       .  A
C1682      C1683   1.414       .  A
C1683      C1684   1.392       .  A
C1683      H1692   1.076       .  S
C1684      C1685   1.398       .  A
C1684      H1693   1.084       .  S
C1685      C1686   1.403       .  A
C1686      H1694   1.084       .  S
C1695      C1696   1.400       .  A
C1695      C1700   1.404       .  A
C1696      C1697   1.391       .  A
C1696      H1709   1.083       .  S
C1697      C1698   1.413       .  A
C1697      H1710   1.077       .  S
C1698      C1704   1.428       .  A
C1698      C1699   1.422       .  A
C1699      C1701   1.401       .  A
C1699      C1700   1.408       .  A
C1700      H1711   1.084       .  S
C1701      C1702   1.392       .  A
C1701      H1712   1.084       .  S
C1702      C1703   1.400       .  A
C1702      H1713   1.084       .  S
C1703      C1704   1.423       .  A
C1703      C1708   1.408       .  A
C1704      C1705   1.413       .  A
C1705      C1706   1.391       .  A
C1705      H1714   1.076       .  S
C1706      C1707   1.399       .  A
C1706      H1715   1.084       .  S
C1707      C1708   1.402       .  A
C1708      H1716   1.084       .  S
C1717      C1718   1.402       .  A
C1717      C1722   1.400       .  A
C1718      C1719   1.394       .  A
C1718      H1731   1.083       .  S
C1719      C1720   1.413       .  A
C1719      H1732   1.077       .  S
C1720      C1726   1.429       .  A
C1720      C1721   1.423       .  A
C1721      C1723   1.399       .  A
C1721      C1722   1.405       .  A
C1722      H1733   1.085       .  S
C1723      C1724   1.389       .  A
C1723      H1734   1.084       .  S
C1724      C1725   1.399       .  A
C1724      H1735   1.084       .  S
C1725      C1726   1.421       .  A
C1725      C1730   1.402       .  A
C1726      C1727   1.416       .  A
C1727      C1728   1.396       .  A
C1727      H1736   1.077       .  S
C1728      C1729   1.399       .  A
C1728      H1737   1.083       .  S
C1729      C1730   1.402       .  A
C1730      H1738   1.085       .  S
C1739      C1740   1.399       .  A
C1739      C1744   1.401       .  A
C1740      C1741   1.398       .  A
C1740      H1753   1.084       .  S
C1741      C1742   1.416       .  A
C1741      H1754   1.077       .  S
C1742      C1748   1.431       .  A
C1742      C1743   1.422       .  A
C1743      C1745   1.400       .  A
C1743      C1744   1.405       .  A
C1744      H1755   1.085       .  S
C1745      C1746   1.391       .  A
C1745      H1756   1.084       .  S
C1746      C1747   1.400       .  A
C1746      H1757   1.084       .  S
C1747      C1748   1.423       .  A
C1747      C1752   1.406       .  A
C1748      C1749   1.415       .  A
C1749      C1750   1.397       .  A
C1749      H1758   1.078       .  S
C1750      C1751   1.400       .  A
C1750      H1759   1.083       .  S
C1751      C1752   1.401       .  A
C1752      H1760   1.085       .  S
C1761      C1762   1.402       .  A
C1761      C1766   1.400       .  A
C1762      C1763   1.392       .  A
C1762      H1775   1.083       .  S
C1763      C1764   1.411       .  A
C1763      H1776   1.076       .  S
C1764      C2474   1.428   1_545  A
C1764      C1765   1.424       .  A
C1765      C2471   1.398       .  A
C1765      C1766   1.406       .  A
C1766      H1777   1.084       .  S
C1767      C2469   1.398       .  A
C1767      C1768   1.389       .  A
C1767      H1778   1.084       .  S
C1768      C1769   1.400       .  A
C1768      H1779   1.084       .  S
C1769      C1770   1.420       .  A
C1769      C1774   1.401       .  A
C1770      C2468   1.428       .  A
C1770      C2475   1.417       .  A
C1771      C2474   1.417       .  A
C1771      C2476   1.396       .  A
C1771      H1780   1.076   1_565  S
C1772      C2475   1.396       .  A
C1772      C1773   1.399       .  A
C1772      H1781   1.084       .  S
C1773      C1774   1.403       .  A
C1774      H1782   1.084       .  S
C1783      C1784   1.398       .  A
C1783      C1788   1.397       .  A
C1784      C2489   1.399       .  A
C1784      H1797   1.084       .  S
C1785      C2488   1.399       .  A
C1785      C2490   1.417       .  A
C1785      H1798   1.078       .  S
C1786      C2489   1.417       .  A
C1786      C2496   1.431       .  A
C1786      C1787   1.423       .  A
C1787      C1789   1.399       .  A
C1787      C1788   1.403       .  A
C1788      H1799   1.085       .  S
C1789      C1790   1.389       .  A
C1789      H1800   1.084       .  S
C1790      C2495   1.399       .  A
C1790      H1801   1.084       .  S
C1791      C2494   1.399       .  A
C1791      C1792   1.422       .  A
C1791      C1796   1.404       .  A
C1792      C2490   1.431   1_545  A
C1792      C1793   1.415       .  A
C1793      C1794   1.399       .  A
C1793      H1802   1.078       .  S
C1794      C1795   1.402       .  A
C1794      H1803   1.083       .  S
C1795      C1796   1.401       .  A
C1796      H1804   1.085       .  S
C1805      C1806   1.402       .  A
C1805      C1810   1.402       .  A
C1806      C1807   1.396       .  A
C1806      H1819   1.083       .  S
C1807      C1808   1.414       .  A
C1807      H1820   1.077       .  S
C1808      C2518   1.431       .  A
C1808      C1809   1.423       .  A
C1809      C2515   1.399       .  A
C1809      C1810   1.406       .  A
C1810      H1821   1.084       .  S
C1811      C2513   1.399       .  A
C1811      C1812   1.390   1_565  A
C1811      H1822   1.084       .  S
C1812      C1813   1.399       .  A
C1812      H1823   1.084       .  S
C1813      C1814   1.422       .  A
C1813      C1818   1.405       .  A
C1814      C2512   1.431   1_545  A
C1814      C1815   1.416       .  A
C1815      C1816   1.397       .  A
C1815      H1824   1.077       .  S
C1816      C1817   1.400       .  A
C1816      H1825   1.084       .  S
C1817      C1818   1.400       .  A
C1818      H1826   1.085       .  S
C1827      C1828   1.401       .  A
C1827      C1832   1.402       .  A
C1828      C1829   1.395       .  A
C1828      H1841   1.084       .  S
C1829      C1830   1.415       .  A
C1829      H1842   1.077       .  S
C1830      C1836   1.431       .  A
C1830      C1831   1.423       .  A
C1831      C1833   1.400       .  A
C1831      C1832   1.408       .  A
C1832      H1843   1.084       .  S
C1833      C1834   1.392       .  A
C1833      H1844   1.084       .  S
C1834      C1835   1.400       .  A
C1834      H1845   1.084       .  S
C1835      C1836   1.423       .  A
C1835      C1840   1.408       .  A
C1836      C1837   1.414       .  A
C1837      C1838   1.395       .  A
C1837      H1846   1.076       .  S
C1838      C1839   1.401       .  A
C1838      H1847   1.083       .  S
C1839      C1840   1.404       .  A
C1840      H1848   1.084       .  S
C1849      C1850   1.398       .  A
C1849      C1854   1.402       .  A
C1850      C1851   1.394       .  A
C1850      H1863   1.083       .  S
C1851      C1852   1.416       .  A
C1851      H1864   1.077       .  S
C1852      C1858   1.426       .  A
C1852      C1853   1.421       .  A
C1853      C1855   1.399       .  A
C1853      C1854   1.401       .  A
C1854      H1865   1.084       .  S
C1855      C1856   1.389       .  A
C1855      H1866   1.084       .  S
C1856      C1857   1.398       .  A
C1856      H1867   1.084       .  S
C1857      C1858   1.423       .  A
C1857      C1862   1.404       .  A
C1858      C1859   1.412       .  A
C1859      C1860   1.391       .  A
C1859      H1868   1.077       .  S
C1860      C1861   1.401       .  A
C1860      H1869   1.083       .  S
C1861      C1862   1.400       .  A
C1862      H1870   1.085       .  S
C1871      C1872   1.400       .  A
C1871      C1876   1.401       .  A
C1872      C1873   1.397       .  A
C1872      H1885   1.083       .  S
C1873      C1874   1.414       .  A
C1873      H1886   1.078       .  S
C1874      C1880   1.429       .  A
C1874      C1875   1.423       .  A
C1875      C1877   1.399       .  A
C1875      C1876   1.405       .  A
C1876      H1887   1.085       .  S
C1877      C1878   1.390       .  A
C1877      H1888   1.084       .  S
C1878      C1879   1.400       .  A
C1878      H1889   1.084       .  S
C1879      C1880   1.422       .  A
C1879      C1884   1.404       .  A
C1880      C1881   1.416       .  A
C1881      C1882   1.398       .  A
C1881      H1890   1.078       .  S
C1882      C1883   1.398       .  A
C1882      H1891   1.084       .  S
C1883      C1884   1.400       .  A
C1884      H1892   1.085       .  S
C1893      C1894   1.402       .  A
C1893      C1898   1.400       .  A
C1894      C1895   1.391       .  A
C1894      H1907   1.083       .  S
C1895      C1896   1.412       .  A
C1895      H1908   1.077       .  S
C1896      C2606   1.426       .  A
C1896      C1897   1.423       .  A
C1897      C2603   1.398       .  A
C1897      C1898   1.404       .  A
C1898      H1909   1.085       .  S
C1899      C2601   1.398   1_545  A
C1899      C1900   1.389       .  A
C1899      H1910   1.084   1_545  S
C1900      C1901   1.399       .  A
C1900      H1911   1.084       .  S
C1901      C1902   1.421       .  A
C1901      C1906   1.401       .  A
C1902      C2600   1.426   1_545  A
C1902      C1903   1.415       .  A
C1903      C1904   1.393       .  A
C1903      H2616   1.077       .  S
C1904      C1905   1.399       .  A
C1904      H1913   1.083       .  S
C1905      C1906   1.401       .  A
C1906      H1914   1.085       .  S
H1912      C2607   1.077       .  S
C1915      C1916   1.400       .  A
C1915      C1920   1.400       .  A
C1916      C1917   1.398       .  A
C1916      H1929   1.084       .  S
C1917      C1918   1.416       .  A
C1917      H1930   1.078       .  S
C1918      C2628   1.431       .  A
C1918      C1919   1.423       .  A
C1919      C1921   1.400       .  A
C1919      C1920   1.406       .  A
C1920      H1931   1.085       .  S
C1921      C1922   1.390       .  A
C1921      H1932   1.084       .  S
C1922      C2627   1.399       .  A
C1922      H2637   1.084       .  S
C1923      C2626   1.399   1_545  A
C1923      C1924   1.422       .  A
C1923      C1928   1.406       .  A
C1924      C2622   1.431   1_545  A
C1924      C1925   1.415       .  A
C1925      C1926   1.399       .  A
C1925      H1934   1.078       .  S
C1926      C1927   1.401       .  A
C1926      H1935   1.083       .  S
C1927      C1928   1.401       .  A
C1928      H1936   1.085       .  S
H1933      C2626   1.084   1_545  S
C1937      C1938   1.401       .  A
C1937      C1942   1.402       .  A
C1938      C1939   1.401       .  A
C1938      H1951   1.083       .  S
C1939      C1940   1.417       .  A
C1939      H1952   1.077       .  S
C1940      C1946   1.431       .  A
C1940      C1941   1.421       .  A
C1941      C1943   1.399       .  A
C1941      C1942   1.401       .  A
C1942      H1953   1.085       .  S
C1943      C1944   1.387       .  A
C1943      H1954   1.084       .  S
C1944      C1945   1.398       .  A
C1944      H1955   1.084       .  S
C1945      C1946   1.424       .  A
C1945      C1950   1.404       .  A
C1946      C1947   1.414       .  A
C1947      C1948   1.397       .  A
C1947      H1956   1.077       .  S
C1948      C1949   1.403       .  A
C1948      H1957   1.083       .  S
C1949      C1950   1.399       .  A
C1950      H1958   1.084       .  S
C1959      C1960   1.400       .  A
C1959      C1964   1.404       .  A
C1960      C1961   1.396       .  A
C1960      H1973   1.084       .  S
C1961      C1962   1.415       .  A
C1961      H1974   1.077       .  S
C1962      C1968   1.432       .  A
C1962      C1963   1.423       .  A
C1963      C1965   1.401       .  A
C1963      C1964   1.410       .  A
C1964      H1975   1.085       .  S
C1965      C1966   1.393       .  A
C1965      H1976   1.084       .  S
C1966      C1967   1.401       .  A
C1966      H1977   1.084       .  S
C1967      C1968   1.423       .  A
C1967      C1972   1.411       .  A
C1968      C1969   1.414       .  A
C1969      C1970   1.395       .  A
C1969      H1978   1.077       .  S
C1970      C1971   1.402       .  A
C1970      H1979   1.083       .  S
C1971      C1972   1.405       .  A
C1972      H1980   1.084       .  S
C1981      C1986   1.402   1_455  A
C1982      C1983   1.397       .  A
C1982      H1995   1.083       .  S
C1983      H1996   1.077       .  S
C1984      C2694   1.430   1_556  A
C1984      C1985   1.422   1_455  A
C1985      C1987   1.399       .  A
C1985      C1986   1.404       .  A
C1986      H1997   1.085       .  S
C1987      C2692   1.389   1_556  A
C1987      H1998   1.084       .  S
C1988      C2691   1.389   1_544  A
C1988      C1989   1.399       .  A
C1988      H1999   1.084       .  S
C1989      C1990   1.422   1_655  A
C1989      C1994   1.403       .  A
C1990      C2688   1.430   1_544  A
C1991      C1992   1.397       .  A
C1991      H2000   1.077       .  S
C1992      C1993   1.400       .  A
C1992      H2001   1.083       .  S
C1994      H2002   1.085       .  S
C2003      C2008   1.400       .  A
C2004      C2005   1.396       .  A
C2004      H2017   1.083       .  S
C2005      H2018   1.077       .  S
C2006      C2012   1.427   1_556  A
C2006      C2007   1.422       .  A
C2007      C2009   1.399       .  A
C2007      C2008   1.400       .  A
C2008      H2019   1.085       .  S
C2009      C2010   1.387   1_556  A
C2009      H2020   1.084       .  S
C2010      C2011   1.398       .  A
C2010      H2021   1.084       .  S
C2011      C2012   1.422       .  A
C2011      C2016   1.400       .  A
C2013      C2014   1.394       .  A
C2013      H2022   1.077       .  S
C2014      H2023   1.083       .  S
C2015      C2016   1.400       .  A
C2016      H2024   1.085       .  S
C2025      C2026   1.402       .  A
C2025      C2030   1.399       .  A
C2026      C2027   1.393       .  A
C2026      H2039   1.083       .  S
C2027      C2028   1.412       .  A
C2027      H2040   1.077       .  S
C2028      C2034   1.427       .  A
C2028      C2029   1.424       .  A
C2029      C2031   1.398       .  A
C2029      C2030   1.403       .  A
C2030      H2041   1.085       .  S
C2031      C2032   1.387       .  A
C2031      H2042   1.084       .  S
C2032      C2033   1.399       .  A
C2032      H2043   1.084       .  S
C2033      C2034   1.421       .  A
C2033      C2038   1.399       .  A
C2034      C2035   1.417       .  A
C2035      C2036   1.396       .  A
C2035      H2044   1.077       .  S
C2036      C2037   1.399       .  A
C2036      H2045   1.083       .  S
C2037      C2038   1.402       .  A
C2038      H2046   1.084       .  S
C2047      C2048   1.400       .  A
C2047      C2052   1.403       .  A
C2048      C2049   1.395       .  A
C2048      H2061   1.084       .  S
C2049      C2050   1.413       .  A
C2049      H2062   1.078       .  S
C2050      C2056   1.430       .  A
C2050      C2051   1.423       .  A
C2051      C2053   1.401       .  A
C2051      C2052   1.410       .  A
C2052      H2063   1.084       .  S
C2053      C2054   1.394       .  A
C2053      H2064   1.084       .  S
C2054      C2055   1.401       .  A
C2054      H2065   1.084       .  S
C2055      C2056   1.423       .  A
C2055      C2060   1.410       .  A
C2056      C2057   1.415       .  A
C2057      C2058   1.395       .  A
C2057      H2066   1.078       .  S
C2058      C2059   1.397       .  A
C2058      H2067   1.084       .  S
C2059      C2060   1.401       .  A
C2060      H2068   1.085       .  S
C2069      C2070   1.398       .  A
C2069      C2074   1.402       .  A
C2070      C2071   1.394       .  A
C2070      H2083   1.083       .  S
C2071      C2072   1.416       .  A
C2071      H2084   1.076       .  S
C2072      C2782   1.426   1_545  A
C2072      C2777   1.421       .  A
C2073      C2776   1.421       .  A
C2073      C2075   1.400       .  A
C2073      C2778   1.400       .  A
C2074      C2777   1.400       .  A
C2074      H2085   1.084       .  S
C2075      C2076   1.388       .  A
C2075      H2086   1.084       .  S
C2076      C2077   1.398       .  A
C2076      H2087   1.084       .  S
C2077      C2078   1.423       .  A
C2077      C2082   1.403       .  A
C2078      C2776   1.426       .  A
C2078      C2079   1.412       .  A
C2079      C2080   1.391       .  A
C2079      H2792   1.077       .  S
C2080      C2081   1.400       .  A
C2080      H2089   1.083       .  S
C2081      C2082   1.400       .  A
C2082      H2090   1.085       .  S
H2088      C2783   1.077       .  S
C2091      C2092   1.397       .  A
C2091      C2096   1.400       .  A
C2092      C2797   1.396   1_545  A
C2092      H2105   1.084       .  S
C2093      C2796   1.396       .  A
C2093      C2798   1.415       .  A
C2093      H2106   1.078       .  S
C2094      C2797   1.415   1_545  A
C2094      C2804   1.429   1_545  A
C2094      C2095   1.423       .  A
C2095      C2097   1.401       .  A
C2095      C2096   1.409       .  A
C2096      H2107   1.085       .  S
C2097      C2098   1.393       .  A
C2097      H2108   1.084       .  S
C2098      C2803   1.400   1_545  A
C2098      H2109   1.084       .  S
C2099      C2802   1.400       .  A
C2099      C2100   1.423       .  A
C2099      C2104   1.409       .  A
C2100      C2798   1.429       .  A
C2100      C2101   1.413       .  A
C2101      C2102   1.394       .  A
C2101      H2110   1.078       .  S
C2102      C2103   1.401       .  A
C2102      H2111   1.084       .  S
C2103      C2104   1.402       .  A
C2104      H2112   1.085       .  S
O2113      C2128   1.259       .  A
O2113     Al2121   1.892       .  S
C2114      O2124   1.260       .  A
C2114      O2115   1.261       .  A
C2114      C2741   1.476       .  S
O2115     Al2117   1.903       .  S
O2116      C2118   1.262       .  A
Al2117     O2125   1.912       .  S
Al2117     O2126   1.779       .  S
C2118      O2131   1.266       .  A
C2118      C2763   1.473       .  S
O2119     Al2121   1.893       .  S
O2120     Al2130   1.892       .  S
Al2121     O2134   1.917       .  S
Al2121     O2131   1.926       .  S
O2122      C2129   1.260       .  A
O2122     Al2130   1.899       .  S
O2123      C2132   1.264       .  A
O2123     Al2130   1.915       .  S
O2124     Al2130   1.897       .  S
O2125      C2132   1.264       .  A
O2126     Al2130   1.781       .  S
O2127      C2128   1.260       .  A
C2128      C2785   1.474       .  S
C2129      C2707   1.471       .  S
C2132      C2807   1.478       .  S
C2133      O2134   1.264   1_455  A
C2133      C2685   1.480       .  S
O2135      C2150   1.261       .  A
O2135     Al2143   1.901       .  S
C2136      O2146   1.260       .  A
C2136      O2137   1.260       .  A
C2136      C2773   1.474       .  S
O2137     Al2139   1.899       .  S
O2138      C2140   1.262       .  A
O2138     Al2139   1.910       .  S
Al2139     O2147   1.904       .  S
Al2139     O2149   1.900       .  S
Al2139     O2148   1.783       .  S
C2140      O2153   1.264       .  A
C2140      C2751   1.480       .  S
O2141      C2151   1.263       .  A
O2141     Al2143   1.908       .  S
O2142      C2155   1.262       .  A
O2142     Al2152   1.905       .  S
Al2143     O2156   1.905       .  S
Al2143     O2153   1.917       .  S
Al2143     O2148   1.782       .  S
O2144      C2151   1.265       .  A
O2144     Al2152   1.916       .  S
O2145      C2154   1.264       .  A
O2145     Al2152   1.925       .  S
O2146     Al2152   1.894       .  S
O2147      C2154   1.261       .  A
O2148     Al2152   1.783       .  S
O2149      C2150   1.260       .  A
C2150      C2729   1.476       .  S
C2151      C2675   1.487       .  S
C2154      C2795   1.472       .  S
C2155      O2156   1.262       .  A
C2155      C2641   1.481       .  S
O2157      C2172   1.260       .  A
O2157     Al2165   1.901       .  S
C2158      O2168   1.258       .  A
C2158      O2159   1.259       .  A
C2158      C2553   1.474       .  S
O2159     Al2161   1.899       .  S
O2160      C2162   1.261       .  A
O2160     Al2161   1.891       .  S
Al2161     O2169   1.896       .  S
Al2161     O2171   1.892       .  S
Al2161     O2170   1.792       .  S
C2162      O2175   1.265       .  A
C2162      C2575   1.476       .  S
O2163      C2173   1.260       .  A
O2163     Al2165   1.898       .  S
O2164      C2177   1.257       .  A
O2164     Al2174   1.880       .  S
Al2165     O2178   1.924       .  S
Al2165     O2175   1.920       .  S
Al2165     O2170   1.792       .  S
O2166      C2173   1.262       .  A
O2166     Al2174   1.911       .  S
O2167      C2176   1.264       .  A
O2167     Al2174   1.917       .  S
O2168     Al2174   1.890       .  S
O2169      C2176   1.261       .  A
O2170     Al2174   1.785       .  S
O2171      C2172   1.258       .  A
C2172      C2597   1.476       .  S
C2173      C2543   1.484       .  S
C2176      C2619   1.477       .  S
C2177      O2178   1.264       .  A
C2177      C2509   1.482       .  S
O2179      C2194   1.259       .  A
C2180      O2190   1.256       .  A
C2180      O2181   1.258       .  A
C2180      C2609   1.474       .  S
O2182      C2184   1.260       .  A
Al2183     O2191   1.892       .  S
Al2183     O2193   1.890       .  S
Al2183     O2192   1.795       .  S
C2184      O2197   1.265       .  A
C2184      C2587   1.473       .  S
O2185      C2195   1.259       .  A
O2185     Al2187   1.897   1_655  S
O2186      C2199   1.257       .  A
O2186     Al2196   1.881       .  S
Al2187     O2197   1.922   1_455  S
O2188      C2195   1.262       .  A
O2189      C2198   1.265       .  A
O2189     Al2196   1.925       .  S
O2191      C2198   1.260       .  A
O2192     Al2196   1.788       .  S
O2193      C2194   1.257       .  A
C2194      C2565   1.475       .  S
C2195      C2663   1.483       .  S
C2198      C2631   1.479       .  S
C2199      O2200   1.264       .  A
C2199      C2653   1.480       .  S
O2201      C2216   1.260       .  A
O2201     Al2209   1.904       .  S
C2202      O2212   1.258       .  A
C2202      O2203   1.258       .  A
C2202      C2433   1.477       .  S
O2203     Al2205   1.900       .  S
O2204      C2206   1.260       .  A
O2204     Al2205   1.891       .  S
Al2205     O2213   1.891       .  S
Al2205     O2215   1.888       .  S
Al2205     O2214   1.796       .  S
C2206      O2219   1.264       .  A
C2206      C2443   1.476       .  S
O2207      C2217   1.260       .  A
O2207     Al2209   1.899       .  S
O2208      C2221   1.259       .  A
O2208     Al2218   1.893       .  S
Al2209     O2222   1.910       .  S
Al2209     O2219   1.918       .  S
Al2209     O2214   1.794       .  S
O2210      C2217   1.261       .  A
O2210     Al2218   1.903       .  S
O2211      C2220   1.264       .  A
O2211     Al2218   1.919       .  S
O2212     Al2218   1.895       .  S
O2213      C2220   1.260       .  A
O2214     Al2218   1.792       .  S
O2215      C2216   1.257       .  A
C2216      C2465   1.478       .  S
C2217      C2531   1.481       .  S
C2220      C2499   1.481       .  S
C2221      O2222   1.262       .  A
C2221      C2521   1.477       .  S
O2223      C2238   1.260       .  A
C2224      O2234   1.260       .  A
C2224      O2225   1.259       .  A
C2224      C2421   1.479       .  S
O2226      C2228   1.259       .  A
Al2227     O2235   1.893   1_455  S
Al2227     O2237   1.894   1_455  S
C2228      O2241   1.262       .  A
C2228      C2487   1.470       .  S
O2229      C2239   1.259       .  A
O2229     Al2231   1.890       .  S
O2230      C2243   1.259       .  A
O2230     Al2240   1.897   1_655  S
Al2231     O2241   1.914       .  S
Al2231     O2236   1.794       .  S
O2232      C2239   1.262       .  A
O2233      C2242   1.262       .  A
O2233     Al2240   1.914   1_655  S
O2235      C2242   1.260       .  A
O2237      C2238   1.258       .  A
C2238      C2477   1.477       .  S
C2239      C2389   1.476       .  S
C2242      C2455   1.477       .  S
C2243      O2244   1.261       .  A
C2243      C2399   1.480       .  S
O2245      C2260   1.260       .  A
O2245     Al2253   1.887       .  S
C2246      O2256   1.257       .  A
C2246      O2247   1.260       .  A
C2246      C2345   1.470       .  S
O2248      C2250   1.259       .  A
O2248     Al2249   1.894       .  S
Al2249     O2259   1.907       .  S
Al2249     O2258   1.782       .  S
C2250      O2263   1.263       .  A
C2250      C2367   1.468       .  S
O2251      C2261   1.262       .  A
O2251     Al2253   1.895       .  S
O2252     Al2262   1.882       .  S
Al2253     O2266   1.913       .  S
Al2253     O2263   1.919       .  S
Al2253     O2258   1.784       .  S
O2254     Al2262   1.913       .  S
O2255      C2264   1.264       .  A
O2255     Al2262   1.919       .  S
O2256     Al2262   1.880       .  S
O2257      C2264   1.260       .  A
O2259      C2260   1.263       .  A
C2260      C2289   1.471       .  S
C2261      C2697   1.478       .  S
C2264      C2323   1.478       .  S
C2265      O2266   1.263       .  A
C2265      C2719   1.474       .  S
O2267      C2282   1.257       .  A
O2267     Al2275   1.896       .  S
C2268      O2278   1.262       .  A
C2268      O2269   1.262       .  A
C2268      C2333   1.471       .  S
O2269     Al2271   1.901       .  S
O2270      C2272   1.261       .  A
O2270     Al2271   1.894       .  S
Al2271     O2279   1.910       .  S
Al2271     O2281   1.887       .  S
Al2271     O2280   1.787       .  S
C2272      O2285   1.264       .  A
C2272      C2311   1.467       .  S
O2273      C2283   1.257       .  A
O2273     Al2275   1.899       .  S
O2274      C2287   1.263       .  A
O2274     Al2284   1.896       .  S
Al2275     O2288   1.906       .  S
Al2275     O2285   1.908       .  S
Al2275     O2280   1.781       .  S
O2276      C2283   1.257       .  A
O2276     Al2284   1.895       .  S
O2277      C2286   1.261       .  A
O2277     Al2284   1.909       .  S
O2278     Al2284   1.894       .  S
O2279      C2286   1.262       .  A
O2280     Al2284   1.786       .  S
O2281      C2282   1.255       .  A
C2282      C2301   1.470       .  S
C2283      C2411   1.475       .  S
C2286      C2355   1.471       .  S
C2287      O2288   1.266       .  A
C2287      C2377   1.477       .  S
C2289      C2290   1.399       .  A
C2289      C2294   1.399       .  A
C2290      C2291   1.392       .  A
C2290      H2303   1.083       .  S
C2291      C2292   1.413       .  A
C2291      H2304   1.077       .  S
C2292      C2298   1.426       .  A
C2292      C2293   1.423       .  A
C2293      C2295   1.398       .  A
C2293      C2294   1.402       .  A
C2294      H2305   1.085       .  S
C2295      C2296   1.388       .  A
C2295      H2306   1.084       .  S
C2296      C2297   1.399       .  A
C2296      H2307   1.084       .  S
C2297      C2298   1.421       .  A
C2297      C2302   1.400       .  A
C2298      C2299   1.416       .  A
C2299      C2300   1.394       .  A
C2299      H2308   1.076       .  S
C2300      C2301   1.397       .  A
C2300      H2309   1.084       .  S
C2301      C2302   1.401       .  A
C2302      H2310   1.085       .  S
C2311      C2312   1.396       .  A
C2311      C2316   1.398       .  A
C2312      C2313   1.394       .  A
C2312      H2325   1.084       .  S
C2313      C2314   1.415       .  A
C2313      H2326   1.077       .  S
C2314      C2320   1.428       .  A
C2314      C2315   1.424       .  A
C2315      C2317   1.399       .  A
C2315      C2316   1.406       .  A
C2316      H2327   1.085       .  S
C2317      C2318   1.390       .  A
C2317      H2328   1.084       .  S
C2318      C2319   1.400       .  A
C2318      H2329   1.084       .  S
C2319      C2320   1.422       .  A
C2319      C2324   1.405       .  A
C2320      C2321   1.415       .  A
C2321      C2322   1.395       .  A
C2321      H2330   1.077       .  S
C2322      C2323   1.400       .  A
C2322      H2331   1.083       .  S
C2323      C2324   1.402       .  A
C2324      H2332   1.085       .  S
C2333      C2334   1.400       .  A
C2333      C2338   1.400       .  A
C2334      C2335   1.388       .  A
C2334      H2347   1.083       .  S
C2335      C2336   1.411       .  A
C2335      H2348   1.076       .  S
C2336      C2337   1.423       .  A
C2337      C2338   1.402       .  A
C2338      H2349   1.084       .  S
C2339      C2340   1.389       .  A
C2339      H2350   1.084       .  S
C2340      C2341   1.399       .  A
C2340      H2351   1.084       .  S
C2341      C2342   1.421       .  A
C2341      C2346   1.400       .  A
C2342      C2343   1.415       .  A
C2343      C2344   1.390       .  A
C2344      C2345   1.398       .  A
C2344      H2353   1.084       .  S
C2345      C2346   1.401       .  A
C2346      H2354   1.084       .  S
C2355      C2356   1.399       .  A
C2355      C2360   1.399       .  A
C2356      H2369   1.084       .  S
C2357      H2370   1.078       .  S
C2358      C2359   1.423       .  A
C2359      C2361   1.400       .  A
C2359      C2360   1.407       .  A
C2360      H2371   1.085       .  S
C2361      C2362   1.392       .  A
C2361      H2372   1.084       .  S
C2362      H2373   1.084       .  S
C2363      C2364   1.422       .  A
C2363      C2368   1.405       .  A
C2364      C2365   1.415       .  A
C2365      C2366   1.394       .  A
C2365      H2374   1.078       .  S
C2366      C2367   1.397       .  A
C2366      H2375   1.084       .  S
C2367      C2368   1.399       .  A
C2368      H2376   1.085       .  S
C2377      C2378   1.400       .  A
C2377      C2382   1.403       .  A
C2378      C2379   1.390       .  A
C2378      H2391   1.083       .  S
C2379      C2380   1.413       .  A
C2379      H2392   1.076       .  S
C2380      C2386   1.427       .  A
C2380      C2381   1.423       .  A
C2381      C2383   1.400       .  A
C2381      C2382   1.406       .  A
C2382      H2393   1.084       .  S
C2383      C2384   1.392       .  A
C2383      H2394   1.084       .  S
C2384      C2385   1.400       .  A
C2384      H2395   1.084       .  S
C2385      C2386   1.422       .  A
C2385      C2390   1.406       .  A
C2386      C2387   1.414       .  A
C2387      C2388   1.392       .  A
C2387      H2396   1.076       .  S
C2388      C2389   1.398       .  A
C2388      H2397   1.084       .  S
C2389      C2390   1.403       .  A
C2390      H2398   1.084       .  S
C2399      C2400   1.400       .  A
C2399      C2404   1.404       .  A
C2400      C2401   1.391       .  A
C2400      H2413   1.083       .  S
C2401      C2402   1.413       .  A
C2401      H2414   1.077       .  S
C2402      C2408   1.428       .  A
C2402      C2403   1.422       .  A
C2403      C2405   1.401       .  A
C2403      C2404   1.408       .  A
C2404      H2415   1.084       .  S
C2405      C2406   1.392       .  A
C2405      H2416   1.084       .  S
C2406      C2407   1.400       .  A
C2406      H2417   1.084       .  S
C2407      C2408   1.423       .  A
C2407      C2412   1.408       .  A
C2408      C2409   1.413       .  A
C2409      C2410   1.391       .  A
C2409      H2418   1.076       .  S
C2410      C2411   1.399       .  A
C2410      H2419   1.084       .  S
C2411      C2412   1.402       .  A
C2412      H2420   1.084       .  S
C2421      C2422   1.402       .  A
C2421      C2426   1.400       .  A
C2422      C2423   1.394       .  A
C2422      H2435   1.083       .  S
C2423      C2424   1.413       .  A
C2423      H2436   1.077       .  S
C2424      C2430   1.429       .  A
C2424      C2425   1.423       .  A
C2425      C2427   1.399       .  A
C2425      C2426   1.405       .  A
C2426      H2437   1.085       .  S
C2427      C2428   1.389       .  A
C2427      H2438   1.084       .  S
C2428      C2429   1.399       .  A
C2428      H2439   1.084       .  S
C2429      C2430   1.421       .  A
C2429      C2434   1.402       .  A
C2430      C2431   1.416       .  A
C2431      C2432   1.396       .  A
C2431      H2440   1.077       .  S
C2432      C2433   1.399       .  A
C2432      H2441   1.083       .  S
C2433      C2434   1.402       .  A
C2434      H2442   1.085       .  S
C2443      C2444   1.399       .  A
C2443      C2448   1.401       .  A
C2444      C2445   1.398       .  A
C2444      H2457   1.084       .  S
C2445      C2446   1.416       .  A
C2445      H2458   1.077       .  S
C2446      C2452   1.431       .  A
C2446      C2447   1.422       .  A
C2447      C2449   1.400       .  A
C2447      C2448   1.405       .  A
C2448      H2459   1.085       .  S
C2449      C2450   1.391       .  A
C2449      H2460   1.084       .  S
C2450      C2451   1.400       .  A
C2450      H2461   1.084       .  S
C2451      C2452   1.423       .  A
C2451      C2456   1.406       .  A
C2452      C2453   1.415       .  A
C2453      C2454   1.397       .  A
C2453      H2462   1.078       .  S
C2454      C2455   1.400       .  A
C2454      H2463   1.083       .  S
C2455      C2456   1.401       .  A
C2456      H2464   1.085       .  S
C2465      C2466   1.402       .  A
C2465      C2470   1.400       .  A
C2466      C2467   1.392       .  A
C2466      H2479   1.083       .  S
C2467      C2468   1.411       .  A
C2467      H2480   1.076       .  S
C2468      C2469   1.424       .  A
C2469      C2470   1.406       .  A
C2470      H2481   1.084       .  S
C2471      C2472   1.389   1_545  A
C2471      H2482   1.084       .  S
C2472      C2473   1.400       .  A
C2472      H2483   1.084       .  S
C2473      C2474   1.420       .  A
C2473      C2478   1.401       .  A
C2475      H2484   1.076       .  S
C2476      C2477   1.399       .  A
C2476      H2485   1.084       .  S
C2477      C2478   1.403       .  A
C2478      H2486   1.084       .  S
C2487      C2488   1.398       .  A
C2487      C2492   1.397       .  A
C2488      H2501   1.084       .  S
C2489      H2502   1.078       .  S
C2490      C2491   1.423       .  A
C2491      C2493   1.399       .  A
C2491      C2492   1.403       .  A
C2492      H2503   1.085       .  S
C2493      C2494   1.389   1_565  A
C2493      H2504   1.084       .  S
C2494      H2505   1.084       .  S
C2495      C2496   1.422       .  A
C2495      C2500   1.404       .  A
C2496      C2497   1.415       .  A
C2497      C2498   1.399       .  A
C2497      H2506   1.078       .  S
C2498      C2499   1.402       .  A
C2498      H2507   1.083       .  S
C2499      C2500   1.401       .  A
C2500      H2508   1.085       .  S
C2509      C2510   1.402       .  A
C2509      C2514   1.402       .  A
C2510      C2511   1.396       .  A
C2510      H2523   1.083       .  S
C2511      C2512   1.414       .  A
C2511      H2524   1.077       .  S
C2512      C2513   1.423       .  A
C2513      C2514   1.406       .  A
C2514      H2525   1.084       .  S
C2515      C2516   1.390       .  A
C2515      H2526   1.084       .  S
C2516      C2517   1.399       .  A
C2516      H2527   1.084       .  S
C2517      C2518   1.422       .  A
C2517      C2522   1.405       .  A
C2518      C2519   1.416       .  A
C2519      C2520   1.397       .  A
C2519      H2528   1.077       .  S
C2520      C2521   1.400       .  A
C2520      H2529   1.084       .  S
C2521      C2522   1.400       .  A
C2522      H2530   1.085       .  S
C2531      C2532   1.401       .  A
C2531      C2536   1.402       .  A
C2532      C2533   1.395       .  A
C2532      H2545   1.084       .  S
C2533      C2534   1.415       .  A
C2533      H2546   1.077       .  S
C2534      C2540   1.431       .  A
C2534      C2535   1.423       .  A
C2535      C2537   1.400       .  A
C2535      C2536   1.408       .  A
C2536      H2547   1.084       .  S
C2537      C2538   1.392       .  A
C2537      H2548   1.084       .  S
C2538      C2539   1.400       .  A
C2538      H2549   1.084       .  S
C2539      C2540   1.423       .  A
C2539      C2544   1.408       .  A
C2540      C2541   1.414       .  A
C2541      C2542   1.395       .  A
C2541      H2550   1.076       .  S
C2542      C2543   1.401       .  A
C2542      H2551   1.083       .  S
C2543      C2544   1.404       .  A
C2544      H2552   1.084       .  S
C2553      C2554   1.398       .  A
C2553      C2558   1.402       .  A
C2554      C2555   1.394       .  A
C2554      H2567   1.083       .  S
C2555      C2556   1.416       .  A
C2555      H2568   1.077       .  S
C2556      C2562   1.426       .  A
C2556      C2557   1.421       .  A
C2557      C2559   1.399       .  A
C2557      C2558   1.401       .  A
C2558      H2569   1.084       .  S
C2559      C2560   1.389       .  A
C2559      H2570   1.084       .  S
C2560      C2561   1.398       .  A
C2560      H2571   1.084       .  S
C2561      C2562   1.423       .  A
C2561      C2566   1.404       .  A
C2562      C2563   1.412       .  A
C2563      C2564   1.391       .  A
C2563      H2572   1.077       .  S
C2564      C2565   1.401       .  A
C2564      H2573   1.083       .  S
C2565      C2566   1.400       .  A
C2566      H2574   1.085       .  S
C2575      C2576   1.400       .  A
C2575      C2580   1.401       .  A
C2576      C2577   1.397       .  A
C2576      H2589   1.083       .  S
C2577      C2578   1.414       .  A
C2577      H2590   1.078       .  S
C2578      C2584   1.429       .  A
C2578      C2579   1.423       .  A
C2579      C2581   1.399       .  A
C2579      C2580   1.405       .  A
C2580      H2591   1.085       .  S
C2581      C2582   1.390       .  A
C2581      H2592   1.084       .  S
C2582      C2583   1.400       .  A
C2582      H2593   1.084       .  S
C2583      C2584   1.422       .  A
C2583      C2588   1.404       .  A
C2584      C2585   1.416       .  A
C2585      C2586   1.398       .  A
C2585      H2594   1.078       .  S
C2586      C2587   1.398       .  A
C2586      H2595   1.084       .  S
C2587      C2588   1.400       .  A
C2588      H2596   1.085       .  S
C2597      C2598   1.402       .  A
C2597      C2602   1.400       .  A
C2598      C2599   1.391       .  A
C2598      H2611   1.083       .  S
C2599      C2600   1.412       .  A
C2599      H2612   1.077       .  S
C2600      C2601   1.423       .  A
C2601      C2602   1.404       .  A
C2602      H2613   1.085       .  S
C2603      C2604   1.389       .  A
C2603      H2614   1.084       .  S
C2604      C2605   1.399       .  A
C2604      H2615   1.084       .  S
C2605      C2606   1.421       .  A
C2605      C2610   1.401       .  A
C2606      C2607   1.415       .  A
C2607      C2608   1.393       .  A
C2608      C2609   1.399       .  A
C2608      H2617   1.083       .  S
C2609      C2610   1.401       .  A
C2610      H2618   1.085       .  S
C2619      C2620   1.400       .  A
C2619      C2624   1.400       .  A
C2620      C2621   1.398       .  A
C2620      H2633   1.084       .  S
C2621      C2622   1.416       .  A
C2621      H2634   1.078   1_565  S
C2622      C2623   1.423       .  A
C2623      C2625   1.400       .  A
C2623      C2624   1.406       .  A
C2624      H2635   1.085       .  S
C2625      C2626   1.390       .  A
C2625      H2636   1.084       .  S
C2627      C2628   1.422       .  A
C2627      C2632   1.406       .  A
C2628      C2629   1.415       .  A
C2629      C2630   1.399       .  A
C2629      H2638   1.078       .  S
C2630      C2631   1.401       .  A
C2630      H2639   1.083       .  S
C2631      C2632   1.401       .  A
C2632      H2640   1.085       .  S
C2641      C2642   1.401       .  A
C2641      C2646   1.402       .  A
C2642      C2643   1.401       .  A
C2642      H2655   1.083       .  S
C2643      C2644   1.417       .  A
C2643      H2656   1.077       .  S
C2644      C2650   1.431       .  A
C2644      C2645   1.421       .  A
C2645      C2647   1.399       .  A
C2645      C2646   1.401       .  A
C2646      H2657   1.085       .  S
C2647      C2648   1.387       .  A
C2647      H2658   1.084       .  S
C2648      C2649   1.398       .  A
C2648      H2659   1.084       .  S
C2649      C2650   1.424       .  A
C2649      C2654   1.404       .  A
C2650      C2651   1.414       .  A
C2651      C2652   1.397       .  A
C2651      H2660   1.077       .  S
C2652      C2653   1.403       .  A
C2652      H2661   1.083       .  S
C2653      C2654   1.399       .  A
C2654      H2662   1.084       .  S
C2663      C2664   1.400       .  A
C2663      C2668   1.404       .  A
C2664      C2665   1.396       .  A
C2664      H2677   1.084       .  S
C2665      C2666   1.415       .  A
C2665      H2678   1.077       .  S
C2666      C2672   1.432       .  A
C2666      C2667   1.423       .  A
C2667      C2669   1.401       .  A
C2667      C2668   1.410       .  A
C2668      H2679   1.085       .  S
C2669      C2670   1.393       .  A
C2669      H2680   1.084       .  S
C2670      C2671   1.401       .  A
C2670      H2681   1.084       .  S
C2671      C2672   1.423       .  A
C2671      C2676   1.411       .  A
C2672      C2673   1.414       .  A
C2673      C2674   1.395       .  A
C2673      H2682   1.077       .  S
C2674      C2675   1.402       .  A
C2674      H2683   1.083       .  S
C2675      C2676   1.405       .  A
C2676      H2684   1.084       .  S
C2685      C2690   1.402   1_455  A
C2686      C2687   1.397       .  A
C2686      H2699   1.083       .  S
C2687      H2700   1.077       .  S
C2688      C2689   1.422   1_455  A
C2689      C2691   1.399       .  A
C2689      C2690   1.404       .  A
C2690      H2701   1.085       .  S
C2691      H2702   1.084       .  S
C2692      C2693   1.399       .  A
C2692      H2703   1.084       .  S
C2693      C2694   1.422   1_655  A
C2693      C2698   1.403       .  A
C2695      C2696   1.397       .  A
C2695      H2704   1.077       .  S
C2696      C2697   1.400       .  A
C2696      H2705   1.083       .  S
C2698      H2706   1.085       .  S
C2707      C2712   1.400       .  A
C2708      C2709   1.396       .  A
C2708      H2721   1.083       .  S
C2709      H2722   1.077       .  S
C2710      C2716   1.427   1_556  A
C2710      C2711   1.422       .  A
C2711      C2713   1.399       .  A
C2711      C2712   1.400       .  A
C2712      H2723   1.085       .  S
C2713      C2714   1.387   1_556  A
C2713      H2724   1.084       .  S
C2714      C2715   1.398       .  A
C2714      H2725   1.084       .  S
C2715      C2716   1.422       .  A
C2715      C2720   1.400       .  A
C2717      C2718   1.394       .  A
C2717      H2726   1.077       .  S
C2718      H2727   1.083       .  S
C2719      C2720   1.400       .  A
C2720      H2728   1.085       .  S
C2729      C2730   1.402       .  A
C2729      C2734   1.399       .  A
C2730      C2731   1.393       .  A
C2730      H2743   1.083       .  S
C2731      C2732   1.412       .  A
C2731      H2744   1.077       .  S
C2732      C2738   1.427       .  A
C2732      C2733   1.424       .  A
C2733      C2735   1.398       .  A
C2733      C2734   1.403       .  A
C2734      H2745   1.085       .  S
C2735      C2736   1.387       .  A
C2735      H2746   1.084       .  S
C2736      C2737   1.399       .  A
C2736      H2747   1.084       .  S
C2737      C2738   1.421       .  A
C2737      C2742   1.399       .  A
C2738      C2739   1.417       .  A
C2739      C2740   1.396       .  A
C2739      H2748   1.077       .  S
C2740      C2741   1.399       .  A
C2740      H2749   1.083       .  S
C2741      C2742   1.402       .  A
C2742      H2750   1.084       .  S
C2751      C2752   1.400       .  A
C2751      C2756   1.403       .  A
C2752      C2753   1.395       .  A
C2752      H2765   1.084       .  S
C2753      C2754   1.413       .  A
C2753      H2766   1.078       .  S
C2754      C2760   1.430       .  A
C2754      C2755   1.423       .  A
C2755      C2757   1.401       .  A
C2755      C2756   1.410       .  A
C2756      H2767   1.085       .  S
C2757      C2758   1.394       .  A
C2757      H2768   1.084       .  S
C2758      C2759   1.401       .  A
C2758      H2769   1.084       .  S
C2759      C2760   1.423       .  A
C2759      C2764   1.410       .  A
C2760      C2761   1.415       .  A
C2761      C2762   1.395       .  A
C2761      H2770   1.078       .  S
C2762      C2763   1.397       .  A
C2762      H2771   1.084       .  S
C2763      C2764   1.401       .  A
C2764      H2772   1.085       .  S
C2773      C2774   1.398       .  A
C2773      C2778   1.402       .  A
C2774      C2775   1.394       .  A
C2774      H2787   1.083       .  S
C2775      C2776   1.416       .  A
C2775      H2788   1.076       .  S
C2777      C2779   1.400       .  A
C2778      H2789   1.084       .  S
C2779      C2780   1.388       .  A
C2779      H2790   1.084       .  S
C2780      C2781   1.398   1_545  A
C2780      H2791   1.084   1_545  S
C2781      C2782   1.423       .  A
C2781      C2786   1.403       .  A
C2782      C2783   1.412       .  A
C2783      C2784   1.391       .  A
C2784      C2785   1.400       .  A
C2784      H2793   1.083       .  S
C2785      C2786   1.400       .  A
C2786      H2794   1.085       .  S
C2795      C2796   1.397       .  A
C2795      C2800   1.400       .  A
C2796      H2809   1.084       .  S
C2797      H2810   1.078       .  S
C2798      C2799   1.423       .  A
C2799      C2801   1.401       .  A
C2799      C2800   1.409       .  A
C2800      H2811   1.085       .  S
C2801      C2802   1.393       .  A
C2801      H2812   1.084       .  S
C2802      H2813   1.084       .  S
C2803      C2804   1.423       .  A
C2803      C2808   1.409       .  A
C2804      C2805   1.413       .  A
C2805      C2806   1.394       .  A
C2805      H2814   1.078       .  S
C2806      C2807   1.401       .  A
C2806      H2815   1.084       .  S
C2807      C2808   1.402       .  A
C2808      H2816   1.085       .  S
