geometry optimzed in LAMMPS
_audit_creation_date              2020-12-01 
_audit_creation_method            'lammps2cif' 
_symmetry_space_group_name_H-M    'P1' 
_symmetry_Int_Tables_number       1 
_symmetry_cell_setting            triclinic 
loop_ 
_symmetry_equiv_pos_as_xyz 
  x,y,z 
_cell_length_a                    33.18112097 
_cell_length_b                    33.18351176023974 
_cell_length_c                    33.19879799300589 
_cell_angle_alpha                 90.23363746684842 
_cell_angle_beta                  90.0632893066995 
_cell_angle_gamma                 90.04389967364445 
loop_ 
_atom_site_label 
_atom_site_type_symbol 
_atom_site_fract_x 
_atom_site_fract_y 
_atom_site_fract_z 
_atom_site_charge 
O1          O  0.72401572  0.33671337  0.96346280    -0.73400
O2          O  0.60287710  0.33688668  0.96142884    -0.74400
O3          O  0.66390227  0.39687634  0.96307695    -0.63000
O4          O  0.66340910  0.27590721  0.96189257    -0.71400
O5          O  0.65996207  0.27536639  0.02868246    -0.71000
O6          O  0.66484548  0.39621915  0.02978890    -0.62200
O7          O  0.60228544  0.33782178  0.02817355    -0.74700
O8          O  0.72292783  0.33338143  0.03026337    -0.73500
Cu9        Cu  0.66357118  0.33657402  0.96011204     1.04600
Cu10       Cu  0.66247865  0.33572471  0.03154034     1.04300
C11         C  0.74248238  0.33490122  0.99718661     0.92800
C12         C  0.58338550  0.33731404  0.99463185     0.91900
C13         C  0.66472302  0.41576006  0.99666616     0.84100
C14         C  0.66135625  0.25660077  0.99506367     0.90400
O15         O  0.32898725  0.26804306  0.95879331    -0.73400
O16         O  0.32718611  0.38913673  0.96276858    -0.74400
O17         O  0.38881329  0.33037011  0.95892876    -0.63000
O18         O  0.26777926  0.32809419  0.96239152    -0.71400
O19         O  0.26953561  0.32396152  0.02914062    -0.71000
O20         O  0.39020277  0.32965491  0.02565332    -0.62200
O21         O  0.32742436  0.38708290  0.02938609    -0.74700
O22         O  0.33270546  0.26642271  0.02545413    -0.73500
Cu23       Cu  0.32811559  0.32885250  0.95836497     1.04600
Cu24       Cu  0.33002529  0.32664632  0.02969809     1.04300
C25         C  0.33122812  0.24807885  0.99157832     0.92800
C26         C  0.32691795  0.40737449  0.99673292     0.91900
C27         C  0.40867534  0.33129298  0.99193261     0.84100
C28         C  0.24968107  0.32590464  0.99623778     0.90400
O29         O  0.73054862  0.66810517  0.03545019    -0.73400
O30         O  0.61003531  0.66991599  0.04301538    -0.74400
O31         O  0.66960699  0.60886779  0.03720528    -0.63000
O32         O  0.67196016  0.72985170  0.04071373    -0.71400
O33         O  0.66600124  0.73108762  0.97411111    -0.71000
O34         O  0.66694275  0.61055816  0.97056534    -0.62200
O35         O  0.60610901  0.67050707  0.97635718    -0.74700
O36         O  0.72688636  0.67178033  0.96875619    -0.73500
Cu37       Cu  0.67064154  0.66916965  0.04142902     1.04600
Cu38       Cu  0.66631138  0.67103464  0.97012289     1.04300
C39         C  0.74767574  0.66997037  0.00110751     0.92800
C40         C  0.58891536  0.66997040  0.01080990     0.91900
C41         C  0.66856972  0.59050067  0.00331382     0.84100
C42         C  0.66936183  0.74949441  0.00778163     0.90400
O43         O  0.39605285  0.66210936  0.97659797    -0.73400
O44         O  0.27503059  0.66326841  0.97221429    -0.74400
O45         O  0.33735109  0.72282346  0.97551671    -0.63000
O46         O  0.33443410  0.60218653  0.97311071    -0.71400
O47         O  0.33201138  0.60107383  0.03970863    -0.71000
O48         O  0.33530954  0.72206238  0.04232795    -0.62200
O49         O  0.27319577  0.66327364  0.03902599    -0.74700
O50         O  0.39436873  0.66057776  0.04332220    -0.73500
Cu51       Cu  0.33577061  0.66253844  0.97205703     1.04600
Cu52       Cu  0.33362227  0.66159092  0.04342850     1.04300
C53         C  0.41437022  0.66237329  0.01048788     0.92800
C54         C  0.25502385  0.66379825  0.00508608     0.91900
C55         C  0.33731329  0.74147821  0.00924874     0.84100
C56         C  0.33242779  0.58236870  0.00597271     0.90400
O57         O  0.66904743  0.03566152  0.60896398    -0.73400
O58         O  0.66627275  0.03462959  0.72960436    -0.74400
O59         O  0.72771497  0.03279714  0.67105942    -0.63000
O60         O  0.60703458  0.03797971  0.66740622    -0.71400
O61         O  0.60458543  0.97131211  0.66670011    -0.71000
O62         O  0.72529763  0.96593850  0.66873929    -0.62200
O63         O  0.66345826  0.96776862  0.72851878    -0.74700
O64         O  0.66587139  0.96904556  0.60793487    -0.73500
Cu65       Cu  0.66758654  0.03759189  0.66931864     1.04600
Cu66       Cu  0.66468963  0.96618946  0.66801596     1.04300
C67         C  0.66790704  0.00254025  0.58923158     0.92800
C68         C  0.66474978  0.00097346  0.74808581     0.91900
C69         C  0.74551384  0.99871116  0.67002716     0.84100
C70         C  0.58658786  0.00536450  0.66615700     0.90400
O71         O  0.33086058  0.97483169  0.60190507    -0.73400
O72         O  0.33311091  0.96757536  0.72240273    -0.74400
O73         O  0.27172854  0.97044830  0.66256482    -0.63000
O74         O  0.39212440  0.97210568  0.66110096    -0.71400
O75         O  0.39224665  0.03864143  0.66598761    -0.71000
O76         O  0.27097907  0.03718927  0.66601650    -0.62200
O77         O  0.33119815  0.03433815  0.72657795    -0.74700
O78         O  0.33147932  0.04155270  0.60555107    -0.73500
Cu79       Cu  0.33201288  0.96898544  0.66188465     1.04600
Cu80       Cu  0.33148298  0.04031306  0.66621925     1.04300
C81         C  0.33089954  0.00914697  0.58459620     0.92800
C82         C  0.33201651  0.99982365  0.74350067     0.91900
C83         C  0.25221035  0.00357078  0.66397033     0.84100
C84         C  0.41144863  0.00532097  0.66338269     0.90400
O85         O  0.33874706  0.03879814  0.26975353    -0.73400
O86         O  0.33434211  0.04138635  0.39067465    -0.74400
O87         O  0.39716563  0.03953078  0.33285410    -0.63000
O88         O  0.27615391  0.04025180  0.32858654    -0.71400
O89         O  0.27612646  0.97331802  0.32665441    -0.71000
O90         O  0.39627656  0.97292461  0.33557349    -0.62200
O91         O  0.33161648  0.97464881  0.39137872    -0.74700
O92         O  0.34083124  0.97201296  0.27055467    -0.73500
Cu93       Cu  0.33666026  0.04234276  0.33031853     1.04600
Cu94       Cu  0.33622814  0.97092147  0.33102899     1.04300
C95         C  0.34057409  0.00511755  0.25099558     0.92800
C96         C  0.33159840  0.00837952  0.41015286     0.91900
C97         C  0.41594894  0.00599644  0.33552169     0.84100
C98         C  0.25717825  0.00675843  0.32743616     0.90400
O99         O  0.66802486  0.96973673  0.27381652    -0.73400
O100        O  0.66996400  0.96719729  0.39448452    -0.74400
O101        O  0.60898044  0.97107688  0.33526913    -0.63000
O102        O  0.72987093  0.96591888  0.33359453    -0.71400
O103        O  0.73228048  0.03264837  0.33716028    -0.71000
O104        O  0.61164633  0.03771566  0.33527559    -0.62200
O105        O  0.67117158  0.03387405  0.39592610    -0.74700
O106        O  0.67283800  0.03645104  0.27529544    -0.73500
Cu107      Cu  0.66917675  0.96613742  0.33413910     1.04600
Cu108      Cu  0.67213035  0.03747496  0.33586343     1.04300
C109        C  0.66976059  0.00347794  0.25553142     0.92800
C110        C  0.67038489  0.00019191  0.41442003     0.91900
C111        C  0.59106857  0.00517406  0.33581418     0.84100
C112        C  0.75013696  0.99859992  0.33628022     0.90400
O113        O  0.03412495  0.72907639  0.66934531    -0.73400
O114        O  0.03331086  0.60788661  0.66727567    -0.74400
O115        O  0.03521041  0.66965140  0.60783227    -0.63000
O116        O  0.03286074  0.66794443  0.72863890    -0.71400
O117        O  0.96597808  0.66753675  0.72771101    -0.71000
O118        O  0.96838820  0.66882103  0.60648621    -0.62200
O119        O  0.96656392  0.60818179  0.66620003    -0.74700
O120        O  0.96727935  0.72889321  0.66731413    -0.73500
Cu121      Cu  0.03619819  0.66860380  0.66835912     1.04600
Cu122      Cu  0.96472802  0.66843185  0.66694448     1.04300
C123        C  0.00067811  0.74808237  0.66793652     0.92800
C124        C  0.99977990  0.58880585  0.66628521     0.91900
C125        C  0.00218412  0.66950660  0.58801583     0.84100
C126        C  0.99920960  0.66728328  0.74725852     0.90400
O127        O  0.96812752  0.27379851  0.66388140    -0.73400
O128        O  0.96789249  0.39464688  0.66482555    -0.74400
O129        O  0.97089386  0.33445390  0.60409904    -0.63000
O130        O  0.96509438  0.33386108  0.72461135    -0.71400
O131        O  0.03185369  0.33602664  0.72769501    -0.71000
O132        O  0.03761211  0.33248357  0.60679451    -0.62200
O133        O  0.03463835  0.39456872  0.66620697    -0.74700
O134        O  0.03481044  0.27375048  0.66921531    -0.73500
Cu135      Cu  0.96570152  0.33415908  0.66419535     1.04600
Cu136      Cu  0.03708181  0.33419002  0.66752461     1.04300
C137        C  0.00139103  0.25473862  0.66712781     0.92800
C138        C  0.00130596  0.41382767  0.66590250     0.91900
C139        C  0.00499255  0.33336574  0.58627451     0.84100
C140        C  0.99759549  0.33514599  0.74523087     0.90400
O141        O  0.96806468  0.60400611  0.33334606    -0.73400
O142        O  0.96590753  0.72509220  0.33613902    -0.74400
O143        O  0.96523382  0.66557410  0.27397867    -0.63000
O144        O  0.96837625  0.66358712  0.39488194    -0.71400
O145        O  0.03512169  0.66655860  0.39392117    -0.71000
O146        O  0.03206951  0.66440977  0.27292024    -0.62200
O147        O  0.03266334  0.72578513  0.33268784    -0.74700
O148        O  0.03476004  0.60522381  0.33366164    -0.73500
Cu149      Cu  0.96454258  0.66452751  0.33462878     1.04600
Cu150      Cu  0.03595065  0.66556425  0.33324025     1.04300
C151        C  0.00180832  0.58537813  0.33306504     0.92800
C152        C  0.99913089  0.74453125  0.33491997     0.91900
C153        C  0.99832544  0.66460570  0.25433178     0.84100
C154        C  0.00203881  0.66499727  0.41356278     0.90400
O155        O  0.96790539  0.32783451  0.27152992    -0.73400
O156        O  0.96976364  0.33212155  0.39291053    -0.74400
O157        O  0.96717705  0.39023808  0.33079858    -0.63000
O158        O  0.96991377  0.26960684  0.33349494    -0.71400
O159        O  0.03679380  0.27094359  0.33333580    -0.71000
O160        O  0.03386117  0.39192819  0.33040717    -0.62200
O161        O  0.03656824  0.33317776  0.39210080    -0.74700
O162        O  0.03471202  0.32995836  0.27137855    -0.73500
Cu163      Cu  0.96634854  0.32985531  0.33223811     1.04600
Cu164      Cu  0.03778366  0.33151203  0.33174056     1.04300
C165        C  0.00127536  0.32871878  0.25232610     0.92800
C166        C  0.00345466  0.33357779  0.41166292     0.91900
C167        C  0.99999882  0.41031827  0.33062036     0.84100
C168        C  0.00370454  0.25120453  0.33367846     0.90400
O169        O  0.99372584  0.30353326  0.93701930    -0.73400
O170        O  0.99568108  0.29907651  0.05778233    -0.74400
O171        O  0.93468376  0.30282290  0.99849010    -0.63000
O172        O  0.05557746  0.30012303  0.99647118    -0.71400
O173        O  0.05732157  0.36682190  0.99919945    -0.71000
O174        O  0.93632608  0.36965389  0.99993047    -0.62200
O175        O  0.99764640  0.36588515  0.06035427    -0.74700
O176        O  0.99670511  0.37033091  0.93930445    -0.73500
Cu177      Cu  0.99489148  0.29908874  0.99734744     1.04600
Cu178      Cu  0.99700801  0.37052291  0.99984368     1.04300
C179        C  0.99518462  0.33750731  0.91912354     0.92800
C180        C  0.99681057  0.33178250  0.07815743     0.91900
C181        C  0.91639101  0.33667355  0.99911510     0.84100
C182        C  0.07566556  0.33303678  0.99741083     0.90400
O183        O  0.00136302  0.63332424  0.06110607    -0.73400
O184        O  0.99923084  0.63334333  0.94006437    -0.74400
O185        O  0.06096874  0.63214717  0.99941951    -0.63000
O186        O  0.94027273  0.63427226  0.00163763    -0.71400
O187        O  0.94087527  0.70105449  0.99951894    -0.71000
O188        O  0.06200485  0.69890119  0.00297006    -0.62200
O189        O  0.00301081  0.70007877  0.94088000    -0.74700
O190        O  0.99925160  0.70017870  0.06156788    -0.73500
Cu191      Cu  0.00045780  0.63094327  0.00056382     1.04600
Cu192      Cu  0.00139526  0.70240072  0.00123242     1.04300
C193        C  0.99953171  0.66670130  0.08037008     0.92800
C194        C  0.00124444  0.66687242  0.92137582     0.91900
C195        C  0.08064553  0.66522136  0.00103877     0.84100
C196        C  0.92144367  0.66780945  0.00076368     0.90400
O197        O  0.94245003  0.99434868  0.30275721    -0.73400
O198        O  0.06297790  0.99845192  0.29875981    -0.74400
O199        O  0.00472254  0.93639456  0.30266534    -0.63000
O200        O  0.00082822  0.05703571  0.29908114    -0.71400
O201        O  0.00568505  0.05922383  0.36571398    -0.71000
O202        O  0.00394926  0.93828811  0.36952262    -0.62200
O203        O  0.06547615  0.99859252  0.36547337    -0.74700
O204        O  0.94422079  0.99940792  0.36939645    -0.73500
Cu205      Cu  0.00265892  0.99649955  0.29852776     1.04600
Cu206      Cu  0.00491913  0.99894940  0.36990605     1.04300
C207        C  0.92423377  0.99620591  0.33658305     0.92800
C208        C  0.08340722  0.99888190  0.33137501     0.91900
C209        C  0.00440063  0.91830682  0.33654163     0.84100
C210        C  0.00318338  0.07720393  0.33185751     0.90400
O211        O  0.05833161  0.00180837  0.63128614    -0.73400
O212        O  0.93734778  0.99976842  0.63491958    -0.74400
O213        O  0.99663487  0.06161980  0.63359895    -0.63000
O214        O  0.99857208  0.94067925  0.63281185    -0.71400
O215        O  0.00148829  0.94141739  0.69961808    -0.71000
O216        O  0.99920481  0.06199369  0.70040167    -0.62200
O217        O  0.93957513  0.00081805  0.70173120    -0.74700
O218        O  0.06033624  0.00333732  0.69817889    -0.73500
Cu219      Cu  0.99765563  0.00102657  0.63078190     1.04600
Cu220      Cu  0.00016926  0.00182526  0.70229098     1.04300
C221        C  0.07830347  0.00303924  0.66420204     0.92800
C222        C  0.91937509  0.00000964  0.66893174     0.91900
C223        C  0.99763547  0.08088992  0.66702850     0.84100
C224        C  0.00065567  0.92202312  0.66631536     0.90400
O225        O  0.63282315  0.94145641  0.00336456    -0.73400
O226        O  0.62817050  0.06212442  0.00118646    -0.74400
O227        O  0.62947441  0.99994667  0.94177119    -0.63000
O228        O  0.63180110  0.00303321  0.06292319    -0.71400
O229        O  0.69849629  0.00663022  0.06152933    -0.71000
O230        O  0.69625611  0.00188085  0.94074302    -0.62200
O231        O  0.69489104  0.06442814  0.99890388    -0.74700
O232        O  0.69964233  0.94346786  0.00341952    -0.73500
Cu233      Cu  0.62825116  0.00155086  0.00237506     1.04600
Cu234      Cu  0.69964364  0.00416319  0.00111631     1.04300
C235        C  0.66676659  0.92334705  0.00363309     0.92800
C236        C  0.66085240  0.08244757  0.99957030     0.91900
C237        C  0.66255892  0.00032379  0.92211416     0.84100
C238        C  0.66555822  0.00559453  0.08139396     0.90400
O239        O  0.30393722  0.05391338  0.99467570    -0.73400
O240        O  0.30901925  0.93337812  0.00224437    -0.74400
O241        O  0.30895486  0.99772631  0.05878252    -0.63000
O242        O  0.30405923  0.99020695  0.93785063    -0.71400
O243        O  0.37074214  0.99381500  0.93539848    -0.71000
O244        O  0.37579115  0.99666089  0.05654876    -0.62200
O245        O  0.37566921  0.93487894  0.99715104    -0.74700
O246        O  0.37082304  0.05593622  0.99510612    -0.73500
Cu247      Cu  0.30417588  0.99361950  0.99844664     1.04600
Cu248      Cu  0.37559648  0.99542777  0.99588326     1.04300
C249        C  0.33678201  0.07396964  0.99443964     0.92800
C250        C  0.34287519  0.91505310  0.00083318     0.91900
C251        C  0.34305409  0.99793059  0.07673796     0.84100
C252        C  0.33669613  0.99149676  0.91744873     0.90400
C253        C  0.03135597  0.14237323  0.35537922    -0.26800
C254        C  0.00355890  0.12167997  0.33096893    -0.14800
C255        C  0.97595006  0.14390417  0.30743404     0.35800
C256        C  0.97619978  0.18600155  0.30939833    -0.26200
C257        C  0.00424313  0.20672030  0.33346056    -0.15500
C258        C  0.03225140  0.18472831  0.35662002     0.36900
N259        N  0.06091863  0.20540156  0.38181586    -0.89700
H260        H  0.05255313  0.12537098  0.37343903     0.18000
H261        H  0.95467856  0.20271030  0.29143751     0.18000
N262        N  0.94663704  0.12462961  0.28214966    -0.88700
H263        H  0.07952038  0.18478623  0.39663002     0.35400
H264        H  0.04478422  0.22070474  0.40416957     0.40500
H265        H  0.92958296  0.10486496  0.29970659     0.40100
H266        H  0.96166414  0.10813997  0.25990505     0.35000
C267        C  0.02325868  0.35658733  0.14366342    -0.26800
C268        C  0.99764099  0.33023509  0.12267322    -0.14800
C269        C  0.97356034  0.30275459  0.14438629     0.35800
C270        C  0.97517087  0.30278070  0.18677626    -0.26200
C271        C  0.00120204  0.32885635  0.20774048    -0.15500
C272        C  0.02598107  0.35562728  0.18589876     0.36900
N273        N  0.05288548  0.38265340  0.20664723    -0.89700
H274        H  0.04192297  0.37744351  0.12692407     0.18000
H275        H  0.95627763  0.28216353  0.20355902     0.18000
N276        N  0.94715489  0.27543124  0.12338669    -0.88700
H277        H  0.06661746  0.40234234  0.18633167     0.35400
H278        H  0.07615087  0.36532996  0.21884762     0.40500
H279        H  0.92531902  0.29264888  0.10863290     0.40100
H280        H  0.93179426  0.25702367  0.14374503     0.35000
C281        C  0.96837605  0.51984303  0.34669466    -0.26800
C282        C  0.00229565  0.54059908  0.33229866    -0.14800
C283        C  0.03518928  0.51794777  0.31702493     0.35800
C284        C  0.03313943  0.47585668  0.31625046    -0.26200
C285        C  0.99926613  0.45509763  0.33075601    -0.15500
C286        C  0.96648578  0.47774067  0.34626697     0.36900
N287        N  0.93127036  0.45917065  0.36284820    -0.89700
H288        H  0.94306037  0.53646866  0.35894388     0.18000
H289        H  0.05850879  0.45922869  0.30411568     0.18000
N290        N  0.07091080  0.53648017  0.30150327    -0.88700
H291        H  0.94009849  0.43962824  0.38581815     0.35400
H292        H  0.91654796  0.44290685  0.34021310     0.40500
H293        H  0.08524341  0.55228203  0.32474545     0.40100
H294        H  0.06282643  0.55644032  0.27867434     0.35000
C295        C  0.02710719  0.80936835  0.31131620    -0.26800
C296        C  0.99932572  0.78903832  0.33574766    -0.14800
C297        C  0.97396775  0.81138302  0.36171174     0.35800
C298        C  0.97707157  0.85368146  0.36254690    -0.26200
C299        C  0.00415200  0.87389504  0.33725430    -0.15500
C300        C  0.02969755  0.85155746  0.31169921     0.36900
N301        N  0.05872834  0.87182993  0.28685310    -0.89700
H302        H  0.04683798  0.79220104  0.29172318     0.18000
H303        H  0.95757674  0.87102151  0.38222448     0.18000
N304        N  0.94617559  0.79115778  0.38798926    -0.88700
H305        H  0.07505555  0.85107041  0.26962588     0.35400
H306        H  0.07942205  0.88585722  0.30611246     0.40500
H307        H  0.92340456  0.77873567  0.37004617     0.40100
H308        H  0.93198579  0.81186257  0.40708698     0.35000
C309        C  0.02626820  0.64273085  0.14551839    -0.26800
C310        C  0.99820099  0.66635830  0.12476291    -0.14800
C311        C  0.96891520  0.68819555  0.14674848     0.35800
C312        C  0.96874752  0.68638969  0.18889878    -0.26200
C313        C  0.99776913  0.66382476  0.20976488    -0.15500
C314        C  0.02645053  0.64127621  0.18778444     0.36900
N315        N  0.05507000  0.61627555  0.20843611    -0.89700
H316        H  0.04833485  0.62553708  0.12863087     0.18000
H317        H  0.94633082  0.70343807  0.20546815     0.18000
N318        N  0.93847009  0.71160294  0.12709713    -0.88700
H319        H  0.07435741  0.60209197  0.18792816     0.35400
H320        H  0.03874773  0.59340017  0.22254632     0.40500
H321        H  0.92278749  0.69289910  0.10706102     0.40100
H322        H  0.95242358  0.73454095  0.11076557     0.35000
C323        C  0.03676370  0.31739704  0.47695137    -0.26800
C324        C  0.00437158  0.33518706  0.45631975    -0.14800
C325        C  0.97325886  0.35374783  0.47862720     0.35800
C326        C  0.97427288  0.35247271  0.52088410    -0.26200
C327        C  0.00611382  0.33387209  0.54159185    -0.15500
C328        C  0.03788984  0.31627746  0.51932355     0.36900
N329        N  0.07059071  0.29643746  0.53960618    -0.89700
H330        H  0.06077199  0.30324698  0.45991640     0.18000
H331        H  0.95026089  0.36674373  0.53781072     0.18000
N332        N  0.94122906  0.37465628  0.45838817    -0.88700
H333        H  0.09161642  0.28552342  0.51881841     0.35400
H334        H  0.05869634  0.27126288  0.55425860     0.40500
H335        H  0.95409481  0.39943496  0.44393300     0.40100
H336        H  0.92058227  0.38628989  0.47917165     0.35000
C337        C  0.96599576  0.31622219  0.85362394    -0.26800
C338        C  0.99515488  0.33852838  0.87471313    -0.14800
C339        C  0.02486210  0.35979778  0.85298980     0.35800
C340        C  0.02502587  0.35814365  0.81093522    -0.26200
C341        C  0.99580240  0.33602588  0.78970820    -0.15500
C342        C  0.96584572  0.31486562  0.81126466     0.36900
N343        N  0.93603463  0.29137568  0.79020932    -0.89700
H344        H  0.94335858  0.29969781  0.87031952     0.18000
H345        H  0.04819398  0.37440446  0.79470094     0.18000
N346        N  0.05632054  0.38177636  0.87283560    -0.88700
H347        H  0.91607183  0.27800803  0.81052224     0.35400
H348        H  0.95101366  0.26783978  0.77549271     0.40500
H349        H  0.07156903  0.36196645  0.89187761     0.40100
H350        H  0.04339268  0.40471288  0.89017957     0.35000
C351        C  0.97728888  0.18986340  0.63926505    -0.26800
C352        C  0.00088550  0.21034151  0.66782313    -0.14800
C353        C  0.02232897  0.18806923  0.69702702     0.35800
C354        C  0.02022588  0.14597246  0.69661287    -0.26200
C355        C  0.99756612  0.12539573  0.66726747    -0.15500
C356        C  0.97543168  0.14757860  0.63859285     0.36900
N357        N  0.95063888  0.12717438  0.60938886    -0.89700
H358        H  0.96042039  0.20698753  0.61722076     0.18000
H359        H  0.03698787  0.12919595  0.71901565     0.18000
N360        N  0.04546175  0.20733237  0.72809139    -0.88700
H361        H  0.93654901  0.14790841  0.59039536     0.35400
H362        H  0.92766649  0.11240076  0.62504951     0.40500
H363        H  0.02668315  0.22720496  0.74380199     0.40100
H364        H  0.06872249  0.22376472  0.71475979     0.35000
C365        C  0.97255883  0.64790012  0.52277373    -0.26800
C366        C  0.00284136  0.66912035  0.54338738    -0.14800
C367        C  0.03335467  0.68874338  0.52115707     0.35800
C368        C  0.03300934  0.68630706  0.47879932    -0.26200
C369        C  0.00252907  0.66518637  0.45822039    -0.15500
C370        C  0.97231683  0.64527199  0.48055090     0.36900
N371        N  0.94199574  0.62167152  0.46035294    -0.89700
H372        H  0.94945294  0.63238773  0.53978428     0.18000
H373        H  0.05608647  0.70180112  0.46173314     0.18000
N374        N  0.06397806  0.71178687  0.54153341    -0.88700
H375        H  0.92196545  0.60912903  0.48113350     0.35400
H376        H  0.95653008  0.59752080  0.44620972     0.40500
H377        H  0.04978129  0.73604464  0.55584030     0.40100
H378        H  0.08416942  0.72416927  0.52081123     0.35000
C379        C  0.96721845  0.47930889  0.65242590    -0.26800
C380        C  0.00123451  0.45859731  0.66668639    -0.14800
C381        C  0.03449585  0.48096414  0.68135188     0.35800
C382        C  0.03340567  0.52327916  0.68023425    -0.26200
C383        C  0.99954355  0.54401625  0.66569840    -0.15500
C384        C  0.96603019  0.52164990  0.65151020     0.36900
N385        N  0.93117547  0.54180417  0.63553939    -0.89700
H386        H  0.94162972  0.46237464  0.64113580     0.18000
H387        H  0.05894006  0.54019361  0.69166477     0.18000
N388        N  0.06895820  0.46080503  0.69813315    -0.88700
H389        H  0.90899475  0.52098331  0.62717452     0.35400
H390        H  0.94001854  0.55643442  0.60914157     0.40500
H391        H  0.05949322  0.44622482  0.72434527     0.40100
H392        H  0.09095162  0.48162310  0.70698819     0.35000
C393        C  0.02971445  0.81394143  0.68902328    -0.26800
C394        C  0.00070438  0.79260010  0.66672522    -0.14800
C395        C  0.97257599  0.81402145  0.64306127     0.35800
C396        C  0.97343156  0.85637966  0.64314084    -0.26200
C397        C  0.00160178  0.87762869  0.66651913    -0.15500
C398        C  0.03030792  0.85607998  0.68934654     0.36900
N399        N  0.06114978  0.87612742  0.71209947    -0.89700
H400        H  0.05178600  0.79775274  0.70678394     0.18000
H401        H  0.95176516  0.87293170  0.62521282     0.18000
N402        N  0.94377481  0.79273305  0.61853058    -0.88700
H403        H  0.04761685  0.89360887  0.73454129     0.35400
H404        H  0.07717836  0.89507726  0.69276465     0.40500
H405        H  0.95983332  0.77675519  0.59658899     0.40100
H406        H  0.92522033  0.81295759  0.60313587     0.35000
C407        C  0.97420559  0.64190278  0.85603031    -0.26800
C408        C  0.00111511  0.66721014  0.87685868    -0.14800
C409        C  0.02769742  0.69198167  0.85470650     0.35800
C410        C  0.02668042  0.69111603  0.81261746    -0.26200
C411        C  0.99913650  0.66663566  0.79176927    -0.15500
C412        C  0.97278534  0.64148982  0.81363724     0.36900
N413        N  0.94534748  0.61511373  0.79277057    -0.89700
H414        H  0.95401181  0.62264825  0.87292230     0.18000
H415        H  0.04729353  0.71019105  0.79601934     0.18000
N416        N  0.05689174  0.71739124  0.87401623    -0.88700
H417        H  0.92806269  0.59867948  0.81328020     0.35400
H418        H  0.96256243  0.59413871  0.77669560     0.40500
H419        H  0.07453236  0.69973560  0.89319058     0.40100
H420        H  0.04185546  0.73920943  0.89104915     0.35000
C421        C  0.81522278  0.97185722  0.31111848    -0.26800
C422        C  0.79458018  0.99707119  0.33806170    -0.14800
C423        C  0.81687400  0.02039854  0.36611445     0.35800
C424        C  0.85902626  0.01873135  0.36591866    -0.26200
C425        C  0.87970103  0.99501281  0.33763778    -0.15500
C426        C  0.85749766  0.97100722  0.31034167     0.36900
N427        N  0.87774872  0.94529199  0.28214335    -0.89700
H428        H  0.79847782  0.95343874  0.28986792     0.18000
H429        H  0.87574558  0.03698762  0.38732496     0.18000
N430        N  0.79760652  0.04537059  0.39566733    -0.88700
H431        H  0.86862843  0.95343032  0.25314125     0.35400
H432        H  0.86831911  0.91567546  0.28723725     0.40500
H433        H  0.77753023  0.02765006  0.41219609     0.40100
H434        H  0.78148614  0.06799993  0.38098184     0.35000
C435        C  0.69803009  0.02507071  0.18993102    -0.26800
C436        C  0.66799134  0.00443301  0.21116505    -0.14800
C437        C  0.63625735  0.98575237  0.18969680     0.35800
C438        C  0.63569211  0.98725353  0.14759834    -0.26200
C439        C  0.66645503  0.00670282  0.12607005    -0.15500
C440        C  0.69771367  0.02636154  0.14756329     0.36900
N441        N  0.72867553  0.04798661  0.12642797    -0.89700
H442        H  0.72202206  0.03990883  0.20649758     0.18000
H443        H  0.61130792  0.97245342  0.13158987     0.18000
N444        N  0.60364482  0.96600612  0.20988866    -0.88700
H445        H  0.74949787  0.06035054  0.14667056     0.35400
H446        H  0.71494329  0.07223741  0.11182819     0.40500
H447        H  0.59033868  0.98653346  0.22981473     0.40100
H448        H  0.61514851  0.94188060  0.22640497     0.35000
C449        C  0.52493889  0.97034519  0.34276053    -0.26800
C450        C  0.54628562  0.00649877  0.33733656    -0.14800
C451        C  0.52433620  0.04279908  0.33370970     0.35800
C452        C  0.48204989  0.04194560  0.33383888    -0.26200
C453        C  0.46072169  0.00557843  0.33791258    -0.15500
C454        C  0.48272365  0.96954509  0.34342504     0.36900
N455        N  0.46258777  0.93191940  0.34990087    -0.89700
H456        H  0.54101651  0.94220922  0.34659248     0.18000
H457        H  0.46592056  0.07007935  0.33022730     0.18000
N458        N  0.54458909  0.08068193  0.32951653    -0.88700
H459        H  0.47219741  0.92039004  0.37755962     0.35400
H460        H  0.47151514  0.91183444  0.32726737     0.40500
H461        H  0.53554999  0.09942410  0.35323209     0.40100
H462        H  0.53515125  0.09383358  0.30254118     0.35000
C463        C  0.14925586  0.01781915  0.36212516    -0.26800
C464        C  0.12806441  0.00046636  0.32971453    -0.14800
C465        C  0.14986870  0.98563619  0.29611097     0.35800
C466        C  0.19213984  0.98854778  0.29581737    -0.26200
C467        C  0.21292268  0.00632916  0.32799518    -0.15500
C468        C  0.19126420  0.02110656  0.36145493     0.36900
N469        N  0.21127425  0.03859237  0.39558556    -0.89700
H470        H  0.13306355  0.02935427  0.38804868     0.18000
H471        H  0.20902856  0.97681725  0.27042055     0.18000
N472        N  0.12923783  0.96715547  0.26270577    -0.88700
H473        H  0.22742161  0.06383671  0.38599252     0.35400
H474        H  0.23166598  0.01754177  0.40703115     0.40500
H475        H  0.11597924  0.94062888  0.27317228     0.40100
H476        H  0.14966863  0.95860182  0.24029592     0.35000
C477        C  0.36481925  0.97449342  0.18667301    -0.26800
C478        C  0.34200106  0.00431586  0.20633167    -0.14800
C479        C  0.32005807  0.03234585  0.18304160     0.35800
C480        C  0.32134588  0.02982688  0.14074780    -0.26200
C481        C  0.34427392  0.00015868  0.12120152    -0.15500
C482        C  0.36642335  0.97233802  0.14452802     0.36900
N483        N  0.38956240  0.94073496  0.12628953    -0.89700
H484        H  0.38165456  0.95274509  0.20420125     0.18000
H485        H  0.30421493  0.05104825  0.12286034     0.18000
N486        N  0.29567975  0.06255913  0.20234762    -0.88700
H487        H  0.41211088  0.95368424  0.10860529     0.35400
H488        H  0.37054630  0.92376945  0.10765605     0.40500
H489        H  0.27255953  0.04771723  0.21771128     0.40100
H490        H  0.28176267  0.08092508  0.18093162     0.35000
C491        C  0.34684043  0.04165808  0.47582628    -0.26800
C492        C  0.32910003  0.00937140  0.45475138    -0.14800
C493        C  0.31015671  0.97823758  0.47661330     0.35800
C494        C  0.31106523  0.97916130  0.51889532    -0.26200
C495        C  0.32986635  0.01077193  0.53999452    -0.15500
C496        C  0.34772243  0.04258642  0.51818921     0.36900
N497        N  0.36774436  0.07503746  0.53894923    -0.89700
H498        H  0.36130753  0.06565959  0.45917242     0.18000
H499        H  0.29666236  0.95510609  0.53553750     0.18000
N500        N  0.28973327  0.94598178  0.45593045    -0.88700
H501        H  0.37891343  0.09611715  0.51845868     0.35400
H502        H  0.39276564  0.06290367  0.55373660     0.40500
H503        H  0.26523739  0.95847872  0.44060023     0.40100
H504        H  0.27774935  0.92540340  0.47646882     0.35000
C505        C  0.36379268  0.97665936  0.80686777    -0.26800
C506        C  0.33216764  0.99707583  0.78783731    -0.14800
C507        C  0.30108569  0.01416189  0.81124102     0.35800
C508        C  0.30248480  0.01065535  0.85345860    -0.26200
C509        C  0.33493616  0.99150286  0.87275413    -0.15500
C510        C  0.36579170  0.97405077  0.84909624     0.36900
N511        N  0.39884890  0.95346969  0.86794851    -0.89700
H512        H  0.38738585  0.96326957  0.78865922     0.18000
H513        H  0.27871791  0.02400748  0.87144624     0.18000
N514        N  0.26776161  0.03406720  0.79204268    -0.88700
H515        H  0.41922441  0.94293800  0.84633064     0.35400
H516        H  0.38703593  0.92803764  0.88209081     0.40500
H517        H  0.27877489  0.06034782  0.77873972     0.40100
H518        H  0.24656264  0.04330067  0.81344671     0.35000
C519        C  0.18639928  0.03453051  0.68222195    -0.26800
C520        C  0.20760727  0.00313531  0.66326275    -0.14800
C521        C  0.18579631  0.97209045  0.64372952     0.35800
C522        C  0.14350729  0.97306767  0.64345079    -0.26200
C523        C  0.12257493  0.00398363  0.66318090    -0.15500
C524        C  0.14414091  0.03491382  0.68268070     0.36900
N525        N  0.12313560  0.06709467  0.70241935    -0.89700
H526        H  0.20264143  0.05859171  0.69731851     0.18000
H527        H  0.12695652  0.94912983  0.62847434     0.18000
N528        N  0.20636976  0.93983400  0.62365393    -0.88700
H529        H  0.13209089  0.09421927  0.68922984     0.35400
H530        H  0.13210961  0.06765695  0.73261441     0.40500
H531        H  0.19696497  0.91269644  0.63650877     0.40100
H532        H  0.19753433  0.93974274  0.59341415     0.35000
C533        C  0.67406838  0.03663439  0.47995401    -0.26800
C534        C  0.66993805  0.99990595  0.45913382    -0.14800
C535        C  0.66536409  0.96407665  0.48151571     0.35800
C536        C  0.66476119  0.96577291  0.52370014    -0.26200
C537        C  0.66882553  0.00254876  0.54450939    -0.15500
C538        C  0.67374181  0.03830236  0.52210376     0.36900
N539        N  0.67877220  0.07648665  0.54176178    -0.89700
H540        H  0.67784640  0.06452490  0.46352285     0.18000
H541        H  0.66100597  0.93789289  0.54015732     0.18000
N542        N  0.66115223  0.92581183  0.46181051    -0.88700
H543        H  0.65577071  0.09564526  0.53201952     0.35400
H544        H  0.70630601  0.08873056  0.53258508     0.40500
H545        H  0.63382084  0.91301962  0.47082489     0.40100
H546        H  0.68447005  0.90709873  0.47168865     0.35000
C547        C  0.47750388  0.04119520  0.65678980    -0.26800
C548        C  0.45627400  0.00508001  0.66316038    -0.14800
C549        C  0.47837172  0.96923378  0.66932191     0.35800
C550        C  0.52051961  0.97031611  0.67001662    -0.26200
C551        C  0.54182234  0.00640591  0.66434821    -0.15500
C552        C  0.51987246  0.04212898  0.65694983     0.36900
N553        N  0.54024114  0.07931751  0.64894511    -0.89700
H554        H  0.46122017  0.06892698  0.65126785     0.18000
H555        H  0.53658274  0.94243738  0.67541777     0.18000
N556        N  0.45835253  0.93149427  0.67547333    -0.88700
H557        H  0.53093369  0.10053541  0.67035446     0.35400
H558        H  0.53114576  0.08943867  0.62056540     0.40500
H559        H  0.46733230  0.92012702  0.70340816     0.40100
H560        H  0.46798121  0.91140793  0.65313360     0.35000
C561        C  0.81090118  0.02118794  0.69838011    -0.26800
C562        C  0.78985985  0.99754923  0.67028667    -0.14800
C563        C  0.81144105  0.97452743  0.64189504     0.35800
C564        C  0.85372728  0.97585247  0.64175259    -0.26200
C565        C  0.87487659  0.99918435  0.67016119    -0.15500
C566        C  0.85316229  0.02182461  0.69886291     0.36900
N567        N  0.87385277  0.04642824  0.72778702    -0.89700
H568        H  0.79444431  0.03916447  0.72016405     0.18000
H569        H  0.87008372  0.95834791  0.61951431     0.18000
N570        N  0.79049861  0.95081008  0.61240755    -0.88700
H571        H  0.86515299  0.03711576  0.75654530     0.35400
H572        H  0.86434262  0.07621076  0.72401227     0.40500
H573        H  0.79991350  0.92090468  0.61534963     0.40100
H574        H  0.79908302  0.96083514  0.58385422     0.35000
C575        C  0.63649225  0.97649447  0.81276104    -0.26800
C576        C  0.66466970  0.00047866  0.79248146    -0.14800
C577        C  0.69237504  0.02385542  0.81473720     0.35800
C578        C  0.69108540  0.02304379  0.85701095    -0.26200
C579        C  0.66224326  0.99989174  0.87749757    -0.15500
C580        C  0.63444955  0.97646215  0.85509685     0.36900
N581        N  0.60506458  0.95188669  0.87522628    -0.89700
H582        H  0.61536924  0.95848362  0.79543815     0.18000
H583        H  0.71248115  0.04093912  0.87410849     0.18000
N584        N  0.72208137  0.04781556  0.79430474    -0.88700
H585        H  0.58915029  0.93428112  0.85440504     0.35400
H586        H  0.58387713  0.97121507  0.88826430     0.40500
H587        H  0.74114601  0.02810553  0.77874215     0.40100
H588        H  0.74009774  0.06334950  0.81505199     0.35000
C589        C  0.31611622  0.85187206  0.03009827    -0.26800
C590        C  0.34366770  0.87062225  0.00414840    -0.14800
C591        C  0.37069448  0.84669918  0.98156230     0.35800
C592        C  0.36831614  0.80449619  0.98418604    -0.26200
C593        C  0.34024512  0.78583361  0.00962530    -0.15500
C594        C  0.31459891  0.80973965  0.03366384     0.36900
N595        N  0.28601243  0.79124378  0.06033508    -0.89700
H596        H  0.29582157  0.87026392  0.04791632     0.18000
H597        H  0.38831844  0.78599417  0.96612258     0.18000
N598        N  0.39952886  0.86518344  0.95517662    -0.88700
H599        H  0.26769196  0.81306275  0.07383116     0.35400
H600        H  0.30222923  0.77783013  0.08370990     0.40500
H601        H  0.38330990  0.87926692  0.93224939     0.40100
H602        H  0.41749754  0.84332188  0.94125478     0.35000
C603        C  0.18982004  0.63639097  0.98012849    -0.26800
C604        C  0.21050433  0.66475275  0.00385694    -0.14800
C605        C  0.18827767  0.69373861  0.02580146     0.35800
C606        C  0.14616342  0.69358193  0.02395240    -0.26200
C607        C  0.12530427  0.66465308  0.00107732    -0.15500
C608        C  0.14738786  0.63586249  0.97864443     0.36900
N609        N  0.12675794  0.60666833  0.95400055    -0.89700
H610        H  0.20685318  0.61434397  0.96303027     0.18000
H611        H  0.12958023  0.71599218  0.04102161     0.18000
N612        N  0.20768715  0.72454591  0.04912669    -0.88700
H613        H  0.14737653  0.58760285  0.93968732     0.35400
H614        H  0.11172551  0.62233373  0.93121548     0.40500
H615        H  0.22723082  0.74036934  0.03025253     0.40100
H616        H  0.22449577  0.71099335  0.07198761     0.35000
C617        C  0.52228473  0.68716698  0.98157024    -0.26800
C618        C  0.54425127  0.66932502  0.01290349    -0.14800
C619        C  0.52317981  0.65059770  0.04482044     0.35800
C620        C  0.48072381  0.64905006  0.04380102    -0.26200
C621        C  0.45896086  0.66564438  0.01155601    -0.15500
C622        C  0.48009954  0.68596497  0.98088874     0.36900
N623        N  0.45883060  0.70652108  0.94951721    -0.98700
H624        H  0.53794781  0.70260097  0.95749827     0.18000
H625        H  0.46462228  0.63399082  0.06780541     0.18000
N626        N  0.54480425  0.63243395  0.07760921    -0.88700
H627        H  0.46830337  0.69474415  0.92185474     0.35400
H628        H  0.46693286  0.73697114  0.95059536     0.40500
H629        H  0.56100906  0.60803967  0.06593040     0.40100
H630        H  0.52480174  0.62059793  0.09881741     0.35000
C631        C  0.63947605  0.81368508  0.98569574    -0.26800
C632        C  0.66918574  0.79388020  0.00811603    -0.14800
C633        C  0.69884281  0.81657621  0.02859293     0.35800
C634        C  0.69813474  0.85890705  0.02593660    -0.26200
C635        C  0.66776490  0.87878502  0.00419424    -0.15500
C636        C  0.63823174  0.85586231  0.98368292     0.36900
N637        N  0.60747275  0.87542600  0.96031714    -0.89700
H638        H  0.61698687  0.79605228  0.96975247     0.18000
H639        H  0.72087097  0.87648716  0.04155498     0.18000
N640        N  0.73024303  0.79664607  0.05075359    -0.88700
H641        H  0.58787115  0.85422684  0.94756545     0.35400
H642        H  0.62169304  0.89000940  0.93635799     0.40500
H643        H  0.71696447  0.78295547  0.07573978     0.40100
H644        H  0.75081158  0.81767908  0.06217971     0.35000
C645        C  0.81239662  0.63852735  0.01939356    -0.26800
C646        C  0.79192491  0.66935960  0.99927269    -0.14800
C647        C  0.81386513  0.70004904  0.97991496     0.35800
C648        C  0.85621140  0.69932032  0.98135659    -0.26200
C649        C  0.87686066  0.66808157  0.00101472    -0.15500
C650        C  0.85464547  0.63742062  0.02042470     0.36900
N651        N  0.87494591  0.60576309  0.04183020    -0.89700
H652        H  0.79523392  0.61526371  0.03451917     0.18000
H653        H  0.87317224  0.72294150  0.96660032     0.18000
N654        N  0.79313309  0.73256510  0.96029694    -0.88700
H655        H  0.85417038  0.58541735  0.05388294     0.35400
H656        H  0.88995136  0.61895550  0.06627153     0.40500
H657        H  0.77836954  0.72061522  0.93511676     0.40100
H658        H  0.81373267  0.75370785  0.94935089     0.35000
C659        C  0.33150480  0.47143621  0.03612643    -0.26800
C660        C  0.32677440  0.45219613  0.99860168    -0.14800
C661        C  0.32300788  0.47623413  0.96375819     0.35800
C662        C  0.32480573  0.51835251  0.96702731    -0.26200
C663        C  0.33024090  0.53757727  0.00446702    -0.15500
C664        C  0.33335592  0.51356966  0.03938095     0.36900
N665        N  0.33902783  0.53156839  0.07826508    -0.89700
H666        H  0.33441475  0.45374159  0.06332914     0.18000
H667        H  0.32187213  0.53604452  0.93982344     0.18000
N668        N  0.31726575  0.45826808  0.92485984    -0.88700
H669        H  0.36585768  0.52042544  0.09043855     0.35400
H670        H  0.31529787  0.52243778  0.09681287     0.40500
H671        H  0.34085138  0.46757120  0.90621199     0.40100
H672        H  0.29030394  0.46924412  0.91282811     0.35000
C673        C  0.14018075  0.29688132  0.01042584    -0.26800
C674        C  0.12042373  0.33179126  0.99680270    -0.14800
C675        C  0.14378424  0.36480726  0.98323699     0.35800
C676        C  0.18601417  0.36185743  0.98324394    -0.26200
C677        C  0.20541478  0.32718815  0.99721500    -0.15500
C678        C  0.18248908  0.29449712  0.01135080     0.36900
N679        N  0.20220570  0.25866611  0.02548732    -0.89700
H680        H  0.12256992  0.27156665  0.02105431     0.18000
H681        H  0.20402132  0.38689509  0.97254712     0.18000
N682        N  0.12480141  0.40110472  0.96927335    -0.88700
H683        H  0.18094998  0.23687288  0.03355106     0.35400
H684        H  0.21780782  0.26618708  0.05183762     0.40500
H685        H  0.10927356  0.39403155  0.94280033     0.40100
H686        H  0.14637149  0.42267626  0.96148402     0.35000
C687        C  0.30982351  0.13795011  0.96643106    -0.26800
C688        C  0.33539827  0.11841226  0.99377390    -0.14800
C689        C  0.35925717  0.14145550  0.02040247     0.35800
C690        C  0.35746982  0.18370986  0.01879020    -0.26200
C691        C  0.33263977  0.20345393  0.99084321    -0.15500
C692        C  0.30861608  0.18030327  0.96420155     0.36900
N693        N  0.28213127  0.19969670  0.93599605    -0.89700
H694        H  0.29131984  0.12005268  0.94622736     0.18000
H695        H  0.37568778  0.20139389  0.03942916     0.18000
N696        N  0.38456792  0.12182483  0.04952184    -0.88700
H697        H  0.26452244  0.17834500  0.92080845     0.35400
H698        H  0.30009105  0.21328423  0.91405689     0.40500
H699        H  0.36580555  0.10619314  0.06936828     0.40100
H700        H  0.40025321  0.14308409  0.06680390     0.35000
C701        C  0.65463301  0.52616402  0.96695172    -0.26800
C702        C  0.66886398  0.54575796  0.00177225    -0.14800
C703        C  0.68264967  0.52231375  0.03448470     0.35800
C704        C  0.68059288  0.48008690  0.03207052    -0.26200
C705        C  0.66584397  0.46049539  0.99748304    -0.15500
C706        C  0.65269429  0.48391775  0.96448435     0.36900
N707        N  0.63660644  0.46494346  0.92890635    -0.89700
H708        H  0.64401463  0.54390562  0.94176170     0.18000
H709        H  0.69125759  0.46233500  0.05723464     0.18000
N710        N  0.69928798  0.54127192  0.06981635    -0.88700
H711        H  0.62910674  0.48645070  0.90722743     0.35400
H712        H  0.60967575  0.45075139  0.93700896     0.40500
H713        H  0.72597616  0.55565053  0.06124415     0.40100
H714        H  0.70732943  0.51974627  0.09128032     0.35000
C715        C  0.51760352  0.35162738  0.96078771    -0.26800
C716        C  0.53867452  0.33664269  0.99428814    -0.14800
C717        C  0.51667798  0.32050034  0.02678860     0.35800
C718        C  0.47454426  0.31937228  0.02521254    -0.26200
C719        C  0.45334416  0.33392736  0.99170330    -0.15500
C720        C  0.47515342  0.35088139  0.95929415     0.36900
N721        N  0.45430224  0.36787836  0.92539140    -0.89700
H722        H  0.53428698  0.36451916  0.93592586     0.18000
H723        H  0.45835750  0.30627005  0.05029525     0.18000
N724        N  0.53694325  0.30401718  0.06109491    -0.88700
H725        H  0.47479965  0.37875272  0.90413597     0.35400
H726        H  0.43810917  0.39284950  0.93581222     0.40500
H727        H  0.52849486  0.27378651  0.06380830     0.40100
H728        H  0.52696535  0.31941180  0.08674901     0.35000
C729        C  0.80763355  0.36543809  0.97734927    -0.26800
C730        C  0.78684373  0.33504246  0.99792067    -0.14800
C731        C  0.80853069  0.30538449  0.01903717     0.35800
C732        C  0.85084872  0.30667664  0.01908229    -0.26200
C733        C  0.87182043  0.33727306  0.99881156    -0.15500
C734        C  0.84997713  0.36707124  0.97775955     0.36900
N735        N  0.87076899  0.39837928  0.95632403    -0.89700
H736        H  0.79069851  0.38815545  0.96119362     0.18000
H737        H  0.86757802  0.28378575  0.03519497     0.18000
N738        N  0.78749656  0.27377622  0.03978628    -0.88700
H739        H  0.85022410  0.41806433  0.94286512     0.35400
H740        H  0.88686985  0.38474678  0.93289472     0.40500
H741        H  0.80789626  0.25441409  0.05391115     0.40100
H742        H  0.77225428  0.25655393  0.01815924     0.35000
C743        C  0.62911894  0.19197342  0.01416270    -0.26800
C744        C  0.66068215  0.21219074  0.99475335    -0.14800
C745        C  0.69198765  0.18988179  0.97674122     0.35800
C746        C  0.69133905  0.14761843  0.97893340    -0.26200
C747        C  0.65967728  0.12711750  0.99810144    -0.15500
C748        C  0.62805731  0.14961032  0.01581525     0.36900
N749        N  0.59548429  0.12956255  0.03608736    -0.89700
H750        H  0.60524199  0.20938214  0.02811420     0.18000
H751        H  0.71560993  0.13055731  0.96527743     0.18000
N752        N  0.72513994  0.21024159  0.95775774    -0.88700
H753        H  0.57452251  0.15048966  0.04687321     0.35400
H754        H  0.60752633  0.11516213  0.06133546     0.40500
H755        H  0.71407591  0.22428433  0.93189710     0.40100
H756        H  0.74674288  0.18948904  0.94795855     0.35000
loop_ 
_geom_bond_atom_site_label_1 
_geom_bond_atom_site_label_2 
_geom_bond_distance 
_geom_bond_site_symmetry_2 
_ccdc_geom_bond_type 
O1           Cu9   2.009       .  S
O1           C11   1.277       .  A
O2           Cu9   2.014       .  S
O2           C12   1.279       .  A
O3           Cu9   2.003       .  S
O3           C13   1.277       .  A
O4           Cu9   2.014       .  S
O4           C14   1.278       .  A
O5          Cu10   2.006       .  S
O5           C14   1.277   1_554  A
O6          Cu10   2.010       .  S
O6           C13   1.279   1_554  A
O7          Cu10   2.002       .  S
O7           C12   1.277   1_554  A
O8          Cu10   2.008       .  S
O8           C11   1.277   1_554  A
Cu9         Cu10   2.372   1_556  S
C11         C730   1.472       .  S
C12         C716   1.484       .  S
C13         C705   1.485       .  S
C14         C744   1.474       .  S
O15         Cu23   2.018       .  S
O15          C25   1.279       .  A
O16         Cu23   2.005       .  S
O16          C26   1.278       .  A
O17         Cu23   2.015       .  S
O17          C27   1.278       .  A
O18         Cu23   2.007       .  S
O18          C28   1.277       .  A
O19         Cu24   2.009       .  S
O19          C28   1.277   1_554  A
O20         Cu24   2.004       .  S
O20          C27   1.278   1_554  A
O21         Cu24   2.007       .  S
O21          C26   1.279   1_554  A
O22         Cu24   2.005       .  S
O22          C25   1.277   1_554  A
Cu23        Cu24   2.370   1_556  S
C25         C691   1.482       .  S
C26         C660   1.488       .  S
C27         C719   1.485       .  S
C28         C677   1.470       .  S
O29         Cu37   1.998       .  S
O29          C39   1.276       .  A
O30         Cu37   2.012       .  S
O30          C40   1.278       .  A
O31         Cu37   2.006       .  S
O31          C41   1.278       .  A
O32         Cu37   2.014       .  S
O32          C42   1.278       .  A
O33         Cu38   1.997       .  S
O33          C42   1.276   1_556  A
O34         Cu38   2.007       .  S
O34          C41   1.278   1_556  A
O35         Cu38   2.009       .  S
O35          C40   1.279   1_556  A
O36         Cu38   2.011       .  S
O36          C39   1.277   1_556  A
Cu37        Cu38   2.373   1_554  S
C39         C646   1.470   1_554  S
C40         C618   1.484       .  S
C41         C702   1.485       .  S
C42         C632   1.473       .  S
O43         Cu51   2.006       .  S
O43          C53   1.278   1_556  A
O44         Cu51   2.016       .  S
O44          C54   1.278   1_556  A
O45         Cu51   2.004       .  S
O45          C55   1.277   1_556  A
O46         Cu51   2.004       .  S
O46          C56   1.278   1_556  A
O47         Cu52   2.012       .  S
O47          C56   1.278       .  A
O48         Cu52   2.008       .  S
O48          C55   1.277       .  A
O49         Cu52   2.011       .  S
O49          C54   1.278       .  A
O50         Cu52   2.016       .  S
O50          C53   1.278       .  A
Cu51        Cu52   2.371   1_556  S
C53         C621   1.484       .  S
C54         C604   1.478       .  S
C55         C593   1.475       .  S
C56         C663   1.489       .  S
O57         Cu65   2.005       .  S
O57          C67   1.278       .  A
O58         Cu65   2.005       .  S
O58          C68   1.277       .  A
O59         Cu65   2.002       .  S
O59          C69   1.277   1_545  A
O60         Cu65   2.010       .  S
O60          C70   1.277       .  A
O61         Cu66   2.002       .  S
O61          C70   1.279   1_565  A
O62         Cu66   2.011       .  S
O62          C69   1.278       .  A
O63         Cu66   2.010       .  S
O63          C68   1.277   1_565  A
O64         Cu66   1.998       .  S
O64          C67   1.277   1_565  A
Cu65        Cu66   2.371   1_545  S
C67         C537   1.485       .  S
C68         C576   1.474       .  S
C69         C562   1.472       .  S
C70         C551   1.487       .  S
O71         Cu79   2.002       .  S
O71          C81   1.278   1_565  A
O72         Cu79   2.010       .  S
O72          C82   1.277       .  A
O73         Cu79   2.001       .  S
O73          C83   1.277   1_565  A
O74         Cu79   1.997       .  S
O74          C84   1.277   1_565  A
O75         Cu80   2.017       .  S
O75          C84   1.279       .  A
O76         Cu80   2.010       .  S
O76          C83   1.279       .  A
O77         Cu80   2.014       .  S
O77          C82   1.278   1_545  A
O78         Cu80   2.015       .  S
O78          C81   1.278       .  A
Cu79        Cu80   2.371   1_565  S
C81         C495   1.482       .  S
C82         C506   1.475       .  S
C83         C520   1.480       .  S
C84         C548   1.487       .  S
O85         Cu93   2.015       .  S
O85          C95   1.279       .  A
O86         Cu93   2.006       .  S
O86          C96   1.277       .  A
O87         Cu93   2.012       .  S
O87          C97   1.279       .  A
O88         Cu93   2.010       .  S
O88          C98   1.277       .  A
O89         Cu94   2.001       .  S
O89          C98   1.276   1_565  A
O90         Cu94   1.999       .  S
O90          C97   1.276   1_565  A
O91         Cu94   2.013       .  S
O91          C96   1.279   1_565  A
O92         Cu94   2.014       .  S
O92          C95   1.278   1_565  A
Cu93        Cu94   2.370   1_545  S
C95         C478   1.484       .  S
C96         C492   1.483       .  S
C97         C453   1.488       .  S
C98         C467   1.469       .  S
O99        Cu107   2.007       .  S
O99         C109   1.277   1_565  A
O100       Cu107   2.004       .  S
O100        C110   1.277   1_565  A
O101       Cu107   2.005       .  S
O101        C111   1.279   1_565  A
O102       Cu107   2.014       .  S
O102        C112   1.278       .  A
O103       Cu108   2.003       .  S
O103        C112   1.276   1_545  A
O104       Cu108   2.007       .  S
O104        C111   1.277       .  A
O105       Cu108   1.998       .  S
O105        C110   1.278       .  A
O106       Cu108   2.011       .  S
O106        C109   1.277       .  A
Cu107      Cu108   2.370   1_565  S
C109        C436   1.474       .  S
C110        C534   1.485   1_545  S
C111        C450   1.488       .  S
C112        C422   1.477       .  S
O113       Cu121   2.008       .  S
O113        C123   1.278       .  A
O114       Cu121   2.017       .  S
O114        C124   1.280   1_455  A
O115       Cu121   2.010       .  S
O115        C125   1.278       .  A
O116       Cu121   2.005       .  S
O116        C126   1.277   1_455  A
O117       Cu122   2.018       .  S
O117        C126   1.279       .  A
O118       Cu122   2.011       .  S
O118        C125   1.279   1_655  A
O119       Cu122   2.000       .  S
O119        C124   1.276       .  A
O120       Cu122   2.008       .  S
O120        C123   1.278   1_655  A
Cu121      Cu122   2.372   1_455  S
C123        C394   1.478       .  S
C124        C383   1.486       .  S
C125        C366   1.482       .  S
C126        C411   1.478       .  S
O127       Cu135   2.005       .  S
O127        C137   1.277   1_655  A
O128       Cu135   2.008       .  S
O128        C138   1.278   1_655  A
O129       Cu135   2.003       .  S
O129        C139   1.278   1_655  A
O130       Cu135   2.006       .  S
O130        C140   1.277       .  A
O131       Cu136   2.006       .  S
O131        C140   1.278   1_455  A
O132       Cu136   2.017       .  S
O132        C139   1.279       .  A
O133       Cu136   2.006       .  S
O133        C138   1.278       .  A
O134       Cu136   2.008       .  S
O134        C137   1.277       .  A
Cu135      Cu136   2.371   1_655  S
C137        C352   1.474       .  S
C138        C380   1.486       .  S
C139        C327   1.484       .  S
C140        C341   1.478       .  S
O141       Cu149   2.012       .  S
O141        C151   1.279   1_655  A
O142       Cu149   2.011       .  S
O142        C152   1.278       .  A
O143       Cu149   2.014       .  S
O143        C153   1.278       .  A
O144       Cu149   2.005       .  S
O144        C154   1.278   1_655  A
O145       Cu150   2.015       .  S
O145        C154   1.279       .  A
O146       Cu150   2.007       .  S
O146        C153   1.278   1_455  A
O147       Cu150   2.002       .  S
O147        C152   1.277   1_455  A
O148       Cu150   2.003       .  S
O148        C151   1.276       .  A
Cu149      Cu150   2.370   1_655  S
C151        C282   1.486       .  S
C152        C296   1.477       .  S
C153        C313   1.480       .  S
C154        C369   1.483       .  S
O155       Cu163   2.017       .  S
O155        C165   1.279   1_655  A
O156       Cu163   2.018       .  S
O156        C166   1.280   1_655  A
O157       Cu163   2.005       .  S
O157        C167   1.276       .  A
O158       Cu163   2.003       .  S
O158        C168   1.277   1_655  A
O159       Cu164   2.011       .  S
O159        C168   1.278       .  A
O160       Cu164   2.010       .  S
O160        C167   1.279   1_455  A
O161       Cu164   2.005       .  S
O161        C166   1.277       .  A
O162       Cu164   2.007       .  S
O162        C165   1.277       .  A
Cu163      Cu164   2.371   1_655  S
C165        C271   1.480       .  S
C166        C324   1.484       .  S
C167        C285   1.486       .  S
C168        C257   1.476       .  S
O169       Cu177   2.009       .  S
O169        C179   1.277       .  A
O170       Cu177   2.007   1_554  S
O170        C180   1.277       .  A
O171       Cu177   2.002       .  S
O171        C181   1.277       .  A
O172       Cu177   2.014   1_455  S
O172        C182   1.279       .  A
O173       Cu178   2.005   1_455  S
O173        C182   1.277       .  A
O174       Cu178   2.014       .  S
O174        C181   1.279       .  A
O175       Cu178   2.015   1_554  S
O175        C180   1.279       .  A
O176       Cu178   2.010       .  S
O176        C179   1.277       .  A
Cu177      Cu178   2.373       .  S
C179        C338   1.475       .  S
C180        C268   1.479       .  S
C181        C733   1.479       .  S
C182        C674   1.486       .  S
O183       Cu191   2.011       .  S
O183        C193   1.278   1_455  A
O184       Cu191   2.011   1_656  S
O184        C194   1.278   1_655  A
O185       Cu191   2.009   1_556  S
O185        C195   1.278   1_556  A
O186       Cu191   2.000   1_655  S
O186        C196   1.277       .  A
O187       Cu192   2.009   1_656  S
O187        C196   1.278   1_556  A
O188       Cu192   2.015       .  S
O188        C195   1.279       .  A
O189       Cu192   2.006   1_556  S
O189        C194   1.277       .  A
O190       Cu192   2.006   1_655  S
O190        C193   1.277       .  A
Cu191      Cu192   2.371       .  S
C193        C310   1.475       .  S
C194        C408   1.478       .  S
C195        C607   1.482       .  S
C196        C649   1.479       .  S
O197       Cu205   2.004   1_655  S
O197        C207   1.277       .  A
O198       Cu205   2.002       .  S
O198        C208   1.277       .  A
O199       Cu205   2.001       .  S
O199        C209   1.277       .  A
O200       Cu205   2.010   1_545  S
O200        C210   1.277       .  A
O201       Cu206   2.006   1_545  S
O201        C210   1.277       .  A
O202       Cu206   2.013       .  S
O202        C209   1.278       .  A
O203       Cu206   2.015       .  S
O203        C208   1.280       .  A
O204       Cu206   2.014   1_655  S
O204        C207   1.279       .  A
Cu205      Cu206   2.372       .  S
C207        C425   1.479       .  S
C208        C464   1.484   1_565  S
C209        C299   1.474       .  S
C210        C254   1.476       .  S
O211       Cu219   2.013   1_455  S
O211        C221   1.278       .  A
O212       Cu219   2.006   1_565  S
O212        C222   1.278   1_565  A
O213       Cu219   2.013       .  S
O213        C223   1.279       .  A
O214       Cu219   2.004   1_565  S
O214        C224   1.277   1_655  A
O215       Cu220   2.007   1_565  S
O215        C224   1.277       .  A
O216       Cu220   1.998   1_655  S
O216        C223   1.276       .  A
O217       Cu220   2.011   1_655  S
O217        C222   1.278       .  A
O218       Cu220   2.002       .  S
O218        C221   1.276       .  A
Cu219      Cu220   2.375   1_655  S
C221        C523   1.470       .  S
C222        C565   1.477   1_545  S
C223        C355   1.477       .  S
C224        C397   1.474       .  S
O225       Cu233   2.000   1_565  S
O225        C235   1.277       .  A
O226       Cu233   2.011       .  S
O226        C236   1.278   1_554  A
O227       Cu233   2.013   1_566  S
O227        C237   1.278   1_565  A
O228       Cu233   2.014       .  S
O228        C238   1.279       .  A
O229       Cu234   2.007       .  S
O229        C238   1.278       .  A
O230       Cu234   2.008   1_556  S
O230        C237   1.278       .  A
O231       Cu234   2.008   1_556  S
O231        C236   1.279       .  A
O232       Cu234   2.016   1_565  S
O232        C235   1.279       .  A
Cu233      Cu234   2.371       .  S
C235        C635   1.479       .  S
C236        C747   1.484       .  S
C237        C579   1.481   1_545  S
C238        C439   1.484       .  S
O239       Cu247   2.005   1_545  S
O239        C249   1.277       .  A
O240       Cu247   2.010   1_554  S
O240        C250   1.279       .  A
O241       Cu247   2.013   1_554  S
O241        C251   1.278       .  A
O242       Cu247   2.014       .  S
O242        C252   1.279       .  A
O243       Cu248   2.015       .  S
O243        C252   1.279       .  A
O244       Cu248   2.014   1_554  S
O244        C251   1.278       .  A
O245       Cu248   2.010       .  S
O245        C250   1.277   1_556  A
O246       Cu248   2.015   1_545  S
O246        C249   1.279       .  A
Cu247      Cu248   2.372       .  S
C249        C688   1.476       .  S
C250        C590   1.479       .  S
C251        C481   1.478   1_565  S
C252        C509   1.485       .  S
C253        C254   1.404       .  A
C253        C258   1.406       .  A
C253        H260   1.084       .  S
C254        C255   1.413   1_455  A
C255        C256   1.398       .  A
C255        N262   1.433       .  S
C256        C257   1.403   1_655  A
C256        H261   1.084       .  S
C257        C258   1.411       .  A
C258        N259   1.438       .  S
N259        H263   1.046       .  S
N259        H264   1.046       .  S
N262        H265   1.046       .  S
N262        H266   1.045       .  S
C267        C268   1.402   1_455  A
C267        C272   1.405       .  A
C267        H274   1.084       .  S
C268        C269   1.412       .  A
C269        C270   1.408       .  A
C269        N276   1.438       .  S
C270        C271   1.404   1_655  A
C270        H275   1.084       .  S
C271        C272   1.413       .  A
C272        N273   1.438       .  S
N273        H277   1.046       .  S
N273        H278   1.045       .  S
N276        H279   1.046       .  S
N276        H280   1.046       .  S
C281        C282   1.404   1_655  A
C281        C286   1.398       .  A
C281        H288   1.084       .  S
C282        C283   1.419       .  A
C283        C284   1.398       .  A
C283        N290   1.432       .  S
C284        C285   1.404   1_455  A
C284        H289   1.084       .  S
C285        C286   1.418       .  A
C286        N287   1.432       .  S
N287        H291   1.045       .  S
N287        H292   1.044       .  S
N290        H293   1.045       .  S
N290        H294   1.044       .  S
C295        C296   1.403   1_455  A
C295        C300   1.403       .  A
C295        H302   1.084       .  S
C296        C297   1.414       .  A
C297        C298   1.407       .  A
C297        N304   1.438       .  S
C298        C299   1.403   1_655  A
C298        H303   1.084       .  S
C299        C300   1.409       .  A
C300        N301   1.437       .  S
N301        H305   1.046       .  S
N301        H306   1.046       .  S
N304        H307   1.045       .  S
N304        H308   1.046       .  S
C309        C310   1.400   1_455  A
C309        C314   1.404       .  A
C309        H316   1.084       .  S
C310        C311   1.414       .  A
C311        C312   1.401       .  A
C311        N318   1.433       .  S
C312        C313   1.404       .  A
C312        H317   1.084       .  S
C313        C314   1.413   1_655  A
C314        N315   1.437       .  S
N315        H319   1.046       .  S
N315        H320   1.045       .  S
N318        H321   1.046       .  S
N318        H322   1.045       .  S
C323        C324   1.406       .  A
C323        C328   1.408       .  A
C323        H330   1.084       .  S
C324        C325   1.412   1_455  A
C325        C326   1.404       .  A
C325        N332   1.437       .  S
C326        C327   1.405   1_655  A
C326        H331   1.084       .  S
C327        C328   1.414       .  A
C328        N329   1.438       .  S
N329        H333   1.046       .  S
N329        H334   1.046       .  S
N332        H335   1.045       .  S
N332        H336   1.046       .  S
C337        C338   1.403       .  A
C337        C342   1.407       .  A
C337        H344   1.084       .  S
C338        C339   1.412   1_655  A
C339        C340   1.397       .  A
C339        N346   1.431       .  S
C340        C341   1.403   1_455  A
C340        H345   1.084       .  S
C341        C342   1.413       .  A
C342        N343   1.438       .  S
N343        H347   1.046       .  S
N343        H348   1.046       .  S
N346        H349   1.044       .  S
N346        H350   1.045       .  S
C351        C352   1.402   1_655  A
C351        C356   1.405       .  A
C351        H358   1.084       .  S
C352        C353   1.413       .  A
C353        C354   1.399       .  A
C353        N360   1.433       .  S
C354        C355   1.405   1_455  A
C354        H359   1.084       .  S
C355        C356   1.412       .  A
C356        N357   1.438       .  S
N357        H361   1.045       .  S
N357        H362   1.046       .  S
N360        H363   1.046       .  S
N360        H364   1.045       .  S
C365        C366   1.403   1_655  A
C365        C370   1.404       .  A
C365        H372   1.084       .  S
C366        C367   1.414       .  A
C367        C368   1.408       .  A
C367        N374   1.438       .  S
C368        C369   1.405       .  A
C368        H373   1.084       .  S
C369        C370   1.413   1_455  A
C370        N371   1.438       .  S
N371        H375   1.046       .  S
N371        H376   1.046       .  S
N374        H377   1.046       .  S
N374        H378   1.046       .  S
C379        C380   1.405   1_655  A
C379        C384   1.406       .  A
C379        H386   1.084       .  S
C380        C381   1.414       .  A
C381        C382   1.405       .  A
C381        N388   1.438       .  S
C382        C383   1.404   1_455  A
C382        H387   1.083       .  S
C383        C384   1.416       .  A
C384        N385   1.438       .  S
N385        H389   1.046       .  S
N385        H390   1.046       .  S
N388        H391   1.046       .  S
N388        H392   1.046       .  S
C393        C394   1.403       .  A
C393        C398   1.398       .  A
C393        H400   1.084       .  S
C394        C395   1.413   1_455  A
C395        C396   1.406       .  A
C395        N402   1.438       .  S
C396        C397   1.402   1_655  A
C396        H401   1.084       .  S
C397        C398   1.413       .  A
C398        N399   1.433       .  S
N399        H403   1.044       .  S
N399        H404   1.046       .  S
N402        H405   1.046       .  S
N402        H406   1.046       .  S
C407        C408   1.405   1_655  A
C407        C412   1.408       .  A
C407        H414   1.084       .  S
C408        C409   1.414       .  A
C409        C410   1.398       .  A
C409        N416   1.433       .  S
C410        C411   1.403   1_455  A
C410        H415   1.084       .  S
C411        C412   1.412       .  A
C412        N413   1.438       .  S
N413        H417   1.046       .  S
N413        H418   1.046       .  S
N416        H419   1.046       .  S
N416        H420   1.044       .  S
C421        C422   1.402       .  A
C421        C426   1.403       .  A
C421        H428   1.084       .  S
C422        C423   1.416   1_565  A
C423        C424   1.400       .  A
C423        N430   1.433       .  S
C424        C425   1.403   1_545  A
C424        H429   1.084       .  S
C425        C426   1.411       .  A
C426        N427   1.432       .  S
N427        H431   1.046       .  S
N427        H432   1.046       .  S
N430        H433   1.046       .  S
N430        H434   1.044       .  S
C435        C436   1.401       .  A
C435        C440   1.407       .  A
C435        H442   1.084       .  S
C436        C437   1.412   1_545  A
C437        C438   1.399       .  A
C437        N444   1.433       .  S
C438        C439   1.405   1_565  A
C438        H443   1.084       .  S
C439        C440   1.416       .  A
C440        N441   1.438       .  S
N441        H445   1.046       .  S
N441        H446   1.046       .  S
N444        H447   1.046       .  S
N444        H448   1.044       .  S
C449        C450   1.405   1_565  A
C449        C454   1.401       .  A
C449        H456   1.084       .  S
C450        C451   1.414       .  A
C451        C452   1.403       .  A
C451        N458   1.432       .  S
C452        C453   1.406       .  A
C452        H457   1.083       .  S
C453        C454   1.414   1_545  A
C454        N455   1.433       .  S
N455        H459   1.046       .  S
N455        H460   1.046       .  S
N458        H461   1.046       .  S
N458        H462   1.046       .  S
C463        C464   1.406       .  A
C463        C468   1.398       .  A
C463        H470   1.084       .  S
C464        C465   1.417   1_545  A
C465        C466   1.406       .  A
C465        N472   1.438       .  S
C466        C467   1.399   1_565  A
C466        H471   1.084       .  S
C467        C468   1.410       .  A
C468        N469   1.433       .  S
N469        H473   1.045       .  S
N469        H474   1.045       .  S
N472        H475   1.045       .  S
N472        H476   1.046       .  S
C477        C478   1.406   1_565  A
C477        C482   1.402       .  A
C477        H484   1.084       .  S
C478        C479   1.414       .  A
C479        C480   1.407       .  A
C479        N486   1.438       .  S
C480        C481   1.402       .  A
C480        H485   1.084       .  S
C481        C482   1.413   1_545  A
C482        N483   1.433       .  S
N483        H487   1.045       .  S
N483        H488   1.046       .  S
N486        H489   1.046       .  S
N486        H490   1.046       .  S
C491        C492   1.406       .  A
C491        C496   1.407       .  A
C491        H498   1.084       .  S
C492        C493   1.413   1_545  A
C493        C494   1.404       .  A
C493        N500   1.438       .  S
C494        C495   1.404   1_565  A
C494        H499   1.084       .  S
C495        C496   1.413       .  A
C496        N497   1.438       .  S
N497        H501   1.046       .  S
N497        H502   1.046       .  S
N500        H503   1.045       .  S
N500        H504   1.046       .  S
C505        C506   1.401       .  A
C505        C510   1.406       .  A
C505        H512   1.084       .  S
C506        C507   1.410   1_565  A
C507        C508   1.408       .  A
C507        N514   1.438       .  S
C508        C509   1.406   1_545  A
C508        H513   1.084       .  S
C509        C510   1.414       .  A
C510        N511   1.437       .  S
N511        H515   1.046       .  S
N511        H516   1.044       .  S
N514        H517   1.045       .  S
N514        H518   1.046       .  S
C519        C520   1.405       .  A
C519        C524   1.402       .  A
C519        H526   1.084       .  S
C520        C521   1.413   1_545  A
C521        C522   1.404       .  A
C521        N528   1.433       .  S
C522        C523   1.400   1_565  A
C522        H527   1.084       .  S
C523        C524   1.406       .  A
C524        N525   1.432       .  S
N525        H529   1.046       .  S
N525        H530   1.046       .  S
N528        H531   1.046       .  S
N528        H532   1.046       .  S
C533        C534   1.405   1_545  A
C533        C538   1.400       .  A
C533        H540   1.083       .  S
C534        C535   1.413       .  A
C535        C536   1.402       .  A
C535        N542   1.433       .  S
C536        C537   1.406   1_565  A
C536        H541   1.084       .  S
C537        C538   1.412       .  A
C538        N539   1.432       .  S
N539        H543   1.046       .  S
N539        H544   1.046       .  S
N542        H545   1.046       .  S
N542        H546   1.046       .  S
C547        C548   1.407       .  A
C547        C552   1.406       .  A
C547        H554   1.084       .  S
C548        C549   1.413   1_545  A
C549        C550   1.399       .  A
C549        N556   1.433       .  S
C550        C551   1.404   1_565  A
C550        H555   1.083       .  S
C551        C552   1.414       .  A
C552        N553   1.433       .  S
N553        H557   1.045       .  S
N553        H558   1.046       .  S
N556        H559   1.046       .  S
N556        H560   1.046       .  S
C561        C562   1.402   1_545  A
C561        C566   1.402       .  A
C561        H568   1.084       .  S
C562        C563   1.408       .  A
C563        C564   1.404       .  A
C563        N570   1.432       .  S
C564        C565   1.405       .  A
C564        H569   1.084       .  S
C565        C566   1.410   1_565  A
C566        N567   1.432       .  S
N567        H571   1.046       .  S
N567        H572   1.046       .  S
N570        H573   1.046       .  S
N570        H574   1.046       .  S
C575        C576   1.402   1_565  A
C575        C580   1.407       .  A
C575        H582   1.084       .  S
C576        C577   1.409       .  A
C577        C578   1.405       .  A
C577        N584   1.438       .  S
C578        C579   1.405   1_545  A
C578        H583   1.084       .  S
C579        C580   1.414       .  A
C580        N581   1.438       .  S
N581        H585   1.046       .  S
N581        H586   1.045       .  S
N584        H587   1.046       .  S
N584        H588   1.046       .  S
C589        C590   1.404       .  A
C589        C594   1.404       .  A
C589        H596   1.084       .  S
C590        C591   1.412   1_554  A
C591        C592   1.406       .  A
C591        N598   1.437       .  S
C592        C593   1.403   1_556  A
C592        H597   1.084       .  S
C593        C594   1.410       .  A
C594        N595   1.437       .  S
N595        H599   1.046       .  S
N595        H600   1.045       .  S
N598        H601   1.044       .  S
N598        H602   1.046       .  S
C603        C604   1.403   1_556  A
C603        C608   1.409       .  A
C603        H610   1.084       .  S
C604        C605   1.413       .  A
C605        C606   1.399       .  A
C605        N612   1.432       .  S
C606        C607   1.403       .  A
C606        H611   1.084       .  S
C607        C608   1.414   1_554  A
C608        N609   1.438       .  S
N609        H613   1.045       .  S
N609        H614   1.046       .  S
N612        H615   1.045       .  S
N612        H616   1.045       .  S
C617        C618   1.403   1_556  A
C617        C622   1.400       .  A
C617        H624   1.084       .  S
C618        C619   1.416       .  A
C619        C620   1.410       .  A
C619        N626   1.438       .  S
C620        C621   1.405       .  A
C620        H625   1.084       .  S
C621        C622   1.411   1_554  A
C622        N623   1.433       .  S
N623        H627   1.045       .  S
N623        H628   1.046       .  S
N626        H629   1.046       .  S
N626        H630   1.046       .  S
C631        C632   1.400   1_556  A
C631        C636   1.402       .  A
C631        H638   1.084       .  S
C632        C633   1.411       .  A
C633        C634   1.408       .  A
C633        N640   1.438       .  S
C634        C635   1.405       .  A
C634        H639   1.084       .  S
C635        C636   1.413   1_554  A
C636        N637   1.438       .  S
N637        H641   1.046       .  S
N637        H642   1.046       .  S
N640        H643   1.045       .  S
N640        H644   1.046       .  S
C645        C646   1.400   1_554  A
C645        C650   1.403       .  A
C645        H652   1.084       .  S
C646        C647   1.409       .  A
C647        C648   1.406       .  A
C647        N654   1.438       .  S
C648        C649   1.406   1_556  A
C648        H653   1.084       .  S
C649        C650   1.414       .  A
C650        N651   1.438       .  S
N651        H655   1.046       .  S
N651        H656   1.046       .  S
N654        H657   1.045       .  S
N654        H658   1.046       .  S
C659        C660   1.406   1_554  A
C659        C664   1.403       .  A
C659        H666   1.083       .  S
C660        C661   1.413       .  A
C661        C662   1.403       .  A
C661        N668   1.433       .  S
C662        C663   1.406   1_556  A
C662        H667   1.084       .  S
C663        C664   1.413       .  A
C664        N665   1.432       .  S
N665        H669   1.046       .  S
N665        H670   1.046       .  S
N668        H671   1.046       .  S
N668        H672   1.046       .  S
C673        C674   1.408   1_554  A
C673        C678   1.406       .  A
C673        H680   1.083       .  S
C674        C675   1.417       .  A
C675        C676   1.405       .  A
C675        N682   1.438       .  S
C676        C677   1.399       .  A
C676        H681   1.084       .  S
C677        C678   1.407   1_556  A
C678        N679   1.438       .  S
N679        H683   1.046       .  S
N679        H684   1.045       .  S
N682        H685   1.044       .  S
N682        H686   1.045       .  S
C687        C688   1.403       .  A
C687        C692   1.408       .  A
C687        H694   1.084       .  S
C688        C689   1.409   1_556  A
C689        C690   1.405       .  A
C689        N696   1.438       .  S
C690        C691   1.405   1_554  A
C690        H695   1.084       .  S
C691        C692   1.414       .  A
C692        N693   1.438       .  S
N693        H697   1.046       .  S
N693        H698   1.045       .  S
N696        H699   1.046       .  S
N696        H700   1.046       .  S
C701        C702   1.405   1_556  A
C701        C706   1.405       .  A
C701        H708   1.083       .  S
C702        C703   1.414       .  A
C703        C704   1.405       .  A
C703        N710   1.438       .  S
C704        C705   1.405   1_554  A
C704        H709   1.083       .  S
C705        C706   1.415       .  A
C706        N707   1.438       .  S
N707        H711   1.046       .  S
N707        H712   1.046       .  S
N710        H713   1.046       .  S
N710        H714   1.046       .  S
C715        C716   1.406       .  A
C715        C720   1.410       .  A
C715        H722   1.084       .  S
C716        C717   1.411   1_556  A
C717        C718   1.399       .  A
C717        N724   1.433       .  S
C718        C719   1.403   1_554  A
C718        H723   1.084       .  S
C719        C720   1.416       .  A
C720        N721   1.438       .  S
N721        H725   1.046       .  S
N721        H726   1.046       .  S
N724        H727   1.046       .  S
N724        H728   1.046       .  S
C729        C730   1.402       .  A
C729        C734   1.406       .  A
C729        H736   1.084       .  S
C730        C731   1.408   1_556  A
C731        C732   1.405       .  A
C731        N738   1.438       .  S
C732        C733   1.405   1_554  A
C732        H737   1.084       .  S
C733        C734   1.413       .  A
C734        N735   1.438       .  S
N735        H739   1.046       .  S
N735        H740   1.046       .  S
N738        H741   1.046       .  S
N738        H742   1.046       .  S
C743        C744   1.402   1_554  A
C743        C748   1.407       .  A
C743        H750   1.084       .  S
C744        C745   1.408       .  A
C745        C746   1.405       .  A
C745        N752   1.438       .  S
C746        C747   1.405       .  A
C746        H751   1.084       .  S
C747        C748   1.415   1_556  A
C748        N749   1.438       .  S
N749        H753   1.046       .  S
N749        H754   1.046       .  S
N752        H755   1.045       .  S
N752        H756   1.046       .  S
