geometry optimzed in LAMMPS
_audit_creation_date              2020-12-01 
_audit_creation_method            'lammps2cif' 
_symmetry_space_group_name_H-M    'P1' 
_symmetry_Int_Tables_number       1 
_symmetry_cell_setting            triclinic 
loop_ 
_symmetry_equiv_pos_as_xyz 
  x,y,z 
_cell_length_a                    29.94082357 
_cell_length_b                    30.00338696455859 
_cell_length_c                    42.5313295678263 
_cell_angle_alpha                 89.8812615324131 
_cell_angle_beta                  89.78820888805116 
_cell_angle_gamma                 120.03810707288234 
loop_ 
_atom_site_label 
_atom_site_type_symbol 
_atom_site_fract_x 
_atom_site_fract_y 
_atom_site_fract_z 
_atom_site_charge 
O1          O  0.87203996  0.05975547  0.36111541    -0.86800
O2          O  0.80050509  0.08993760  0.35404353    -0.83900
C3          C  0.77058086  0.10588843  0.36247281     0.96600
O4          O  0.78611032  0.14402708  0.38076172    -0.83900
O5          O  0.78858554  0.10185221  0.43810293    -0.86600
C6          C  0.80453564  0.08445262  0.45957536     1.01100
O7          O  0.85162779  0.09788669  0.46090440    -0.79300
O8          O  0.85127003  0.04009156  0.41087871    -0.79500
C9          C  0.85372979  0.02658401  0.38316227     1.01100
O10         O  0.95375428  0.16715451  0.35888370    -0.86800
O11         O  0.88124258  0.19689250  0.34721507    -0.83900
C12         C  0.89376379  0.23590489  0.36444379     0.96600
O13         O  0.88616972  0.23088482  0.39372382    -0.83900
O14         O  0.88641386  0.19515761  0.45292626    -0.86500
C15         C  0.93254398  0.20427056  0.45573553     1.01100
O16         O  0.94844775  0.18006574  0.43940689    -0.79400
O17         O  0.95391223  0.11647039  0.39576496    -0.79500
C18         C  0.97731443  0.14977110  0.37471408     1.01100
Cr19       Cr  0.87644559  0.12912705  0.35811967     1.93700
Cr20       Cr  0.83900533  0.16579889  0.41516307     1.93200
Cr21       Cr  0.89927659  0.11046015  0.42488037     1.39100
O22         O  0.87157119  0.13542221  0.39913271    -1.24600
O23         O  0.12528202  0.18332611  0.65472065    -0.86800
O24         O  0.19732659  0.28558345  0.66100176    -0.83900
C25         C  0.22761726  0.33122298  0.65223479     0.96600
O26         O  0.21331648  0.35275431  0.63218815    -0.83900
O27         O  0.21054812  0.30523834  0.57545137    -0.86600
C28         C  0.19378526  0.27178607  0.55403742     1.01100
O29         O  0.14667049  0.23783765  0.55354888    -0.79300
O30         O  0.14510864  0.18150601  0.60504946    -0.79500
C31         C  0.14249133  0.16662186  0.63310914     1.01100
O32         O  0.04422110  0.20992630  0.65516469    -0.86800
O33         O  0.11686117  0.31255871  0.66513548    -0.83900
C34         C  0.10449944  0.33797435  0.64673038     0.96600
O35         O  0.11374394  0.34016038  0.61768162    -0.83900
O36         O  0.11403320  0.30224549  0.55965988    -0.86500
C37         C  0.06743836  0.26628427  0.55714930     1.01100
O38         O  0.05049105  0.22631136  0.57387079    -0.79400
O39         O  0.04265423  0.15746968  0.61909495    -0.79500
C40         C  0.02027402  0.16796128  0.64048832     1.01100
Cr41       Cr  0.12148576  0.24888724  0.65602645     1.93700
Cr42       Cr  0.16073570  0.32068109  0.59764880     1.93200
Cr43       Cr  0.09840228  0.20482024  0.58976652     1.39100
O44         O  0.12702462  0.25839678  0.61474718    -1.24600
O45         O  0.04153904  0.83612291  0.65549069    -0.86800
O46         O  0.11341178  0.80595225  0.66610309    -0.83900
C47         C  0.10048354  0.76773713  0.64809877     0.96600
O48         O  0.10846035  0.77405465  0.61891139    -0.83900
O49         O  0.11194104  0.81375933  0.56042352    -0.86600
C50         C  0.06602529  0.80484834  0.55707046     1.01100
O51         O  0.04921458  0.82782125  0.57383086    -0.79300
O52         O  0.04150973  0.88788785  0.61924630    -0.79500
C53         C  0.01823444  0.85418587  0.64015519     1.01100
O54         O  0.12256534  0.94367260  0.65543354    -0.86800
O55         O  0.19389190  0.91264880  0.66159043    -0.83900
C56         C  0.22341270  0.89614058  0.65335552     0.96600
O57         O  0.20809644  0.85890385  0.63438387    -0.83900
O58         O  0.20891827  0.90493055  0.57778939    -0.86500
C59         C  0.19396630  0.92365047  0.55653369     1.01100
O60         O  0.14723662  0.91173153  0.55509748    -0.79400
O61         O  0.14486788  0.96568427  0.60612939    -0.79500
C62         C  0.14128380  0.97786467  0.63396872     1.01100
Cr63       Cr  0.11840804  0.87411608  0.65681113     1.93700
Cr64       Cr  0.15713735  0.84006970  0.59916938     1.93200
Cr65       Cr  0.09761080  0.89636276  0.59040330     1.39100
O66         O  0.12435801  0.86992195  0.61567384    -1.24600
O67         O  0.17950771  0.12888989  0.36139520    -0.86800
O68         O  0.28233707  0.20008067  0.35712024    -0.83900
C69         C  0.32842548  0.22853171  0.36551152     0.96600
O70         O  0.34992269  0.21129237  0.38352572    -0.83900
O71         O  0.30424269  0.20998861  0.44033920    -0.86600
C72         C  0.26847412  0.19594370  0.46034237     1.01100
O73         O  0.23320517  0.14939659  0.46199420    -0.79300
O74         O  0.17658029  0.14774523  0.41087496    -0.79500
C75         C  0.16262120  0.14620809  0.38275158     1.01100
O76         O  0.20476002  0.04762604  0.36001791    -0.86800
O77         O  0.30799112  0.11922659  0.35044564    -0.83900
C78         C  0.33226493  0.10412435  0.36784644     0.96600
O79         O  0.33298764  0.10979984  0.39726076    -0.83900
O80         O  0.29655518  0.11183108  0.45643687    -0.86500
C81         C  0.25909288  0.06611282  0.45917834     1.01100
O82         O  0.21891394  0.05136053  0.44310058    -0.79400
O83         O  0.15251775  0.04469491  0.39722626    -0.79500
C84         C  0.16289470  0.02332790  0.37509665     1.01100
Cr85       Cr  0.24470058  0.12436901  0.36024204     1.93700
Cr86       Cr  0.31637722  0.15848985  0.41812915     1.93200
Cr87       Cr  0.19939631  0.10035518  0.42649433     1.39100
O88         O  0.25359786  0.12762543  0.40148975    -1.24600
O89         O  0.95083809  0.79701814  0.35695311    -0.86800
O90         O  0.87952117  0.69447106  0.34651121    -0.83900
C91         C  0.89219590  0.66873214  0.36434946     0.96600
O92         O  0.88404860  0.66622581  0.39353923    -0.83900
O93         O  0.88652957  0.70401037  0.45203975    -0.86600
C94         C  0.93274816  0.74096388  0.45424594     1.01100
O95         O  0.94824964  0.78067852  0.43746542    -0.79300
O96         O  0.95201750  0.84894788  0.39316249    -0.79500
C97         C  0.97469983  0.83867990  0.37187284     1.01100
O98         O  0.86780607  0.82133453  0.35925067    -0.86800
O99         O  0.79781743  0.71829670  0.35178474    -0.83900
C100        C  0.76820395  0.67302069  0.36147002     0.96600
O101        O  0.78316921  0.65262335  0.38188032    -0.83900
O102        O  0.78817936  0.69900031  0.43835361    -0.86500
C103        C  0.80512315  0.73226912  0.45975441     1.01100
O104        O  0.85213025  0.76638737  0.46002233    -0.79400
O105        O  0.84941170  0.82172200  0.40937379    -0.79500
C106        C  0.85074535  0.83700672  0.38157585     1.01100
Cr107      Cr  0.87363285  0.75691334  0.35664046     1.93700
Cr108      Cr  0.83763402  0.68482529  0.41505831     1.93200
Cr109      Cr  0.89828227  0.80042951  0.42309015     1.39100
O110        O  0.86954709  0.74701518  0.39794535    -1.24600
O111        O  0.79128365  0.95695535  0.65273871    -0.86800
O112        O  0.68824574  0.88486134  0.66217884    -0.83900
C113        C  0.66297190  0.89778838  0.64416015     0.96600
O114        O  0.66237759  0.89094410  0.61493262    -0.83900
O115        O  0.70234065  0.89162611  0.55687186    -0.86600
C116        C  0.73976676  0.93756490  0.55474513     1.01100
O117        O  0.77978849  0.95193916  0.57093404    -0.79300
O118        O  0.84528685  0.95838769  0.61746235    -0.79500
C119        C  0.83405217  0.98067701  0.63855830     1.01100
O120        O  0.81675156  0.87541203  0.65344610    -0.86800
O121        O  0.71379573  0.80455129  0.65840787    -0.83900
C122        C  0.66855338  0.77481044  0.64892801     0.96600
O123        O  0.64796559  0.79003835  0.62875932    -0.83900
O124        O  0.69520302  0.79329276  0.57308290    -0.86500
C125        C  0.73114322  0.80787837  0.55329849     1.01100
O126        O  0.76619641  0.85447942  0.55199044    -0.79400
O127        O  0.82016319  0.85500075  0.60430004    -0.79500
C128        C  0.83350503  0.85709627  0.63260830     1.01100
Cr129      Cr  0.75164918  0.88005132  0.65361597     1.93700
Cr130      Cr  0.68153459  0.84380933  0.59476663     1.93200
Cr131      Cr  0.79868347  0.90283781  0.58792335     1.39100
O132        O  0.74365598  0.87544288  0.61227574    -1.24600
O133        O  0.45811654  0.84952469  0.31982451    -0.86800
O134        O  0.53136053  0.95193389  0.32526548    -0.83900
C135        C  0.56069164  0.99812130  0.31707202     0.96600
O136        O  0.54483144  0.02017960  0.29844018    -0.83900
O137        O  0.54456266  0.97563789  0.24114170    -0.86600
C138        C  0.52920159  0.94178503  0.21998512     1.01100
O139        O  0.48279837  0.90600741  0.21940474    -0.79300
O140        O  0.47943624  0.84820911  0.27056301    -0.79500
C141        C  0.47542596  0.83245758  0.29852517     1.01100
O142        O  0.37844973  0.87783564  0.32004426    -0.86800
O143        O  0.45158195  0.97942173  0.33071727    -0.83900
C144        C  0.43717286  0.00408890  0.31314490     0.96600
O145        O  0.44431327  0.00573431  0.28381954    -0.83900
O146        O  0.44785626  0.97008065  0.22483542    -0.86500
C147        C  0.40221713  0.93290432  0.22122661     1.01100
O148        O  0.38532252  0.89316216  0.23808474    -0.79400
O149        O  0.37675724  0.82548453  0.28374652    -0.79500
C150        C  0.35406628  0.83687607  0.30449281     1.01100
Cr151      Cr  0.45545480  0.91567518  0.32106904     1.93700
Cr152      Cr  0.49314749  0.98847689  0.26342096     1.93200
Cr153      Cr  0.43321704  0.87221351  0.25479129     1.39100
O154        O  0.46078768  0.92563713  0.27989147    -1.24600
O155        O  0.21193547  0.71882082  0.02020213    -0.86800
O156        O  0.13903881  0.74788913  0.01541866    -0.83900
C157        C  0.10970549  0.76428197  0.02427027     0.96600
O158        O  0.12609297  0.80263474  0.04241249    -0.83900
O159        O  0.12821859  0.75858136  0.09916648    -0.86600
C160        C  0.14404403  0.74069037  0.12043049     1.01100
O161        O  0.19079296  0.75232085  0.12108310    -0.79300
O162        O  0.19229418  0.69774403  0.06987141    -0.79500
C163        C  0.19386374  0.68490040  0.04186546     1.01100
O164        O  0.29198045  0.82719319  0.01876057    -0.86800
O165        O  0.21850139  0.85580006  0.00906299    -0.83900
C166        C  0.23195450  0.89445205  0.02685090     0.96600
O167        O  0.22594767  0.88861247  0.05618688    -0.83900
O168        O  0.22518488  0.85069930  0.11475763    -0.86500
C169        C  0.27143290  0.86037615  0.11743871     1.01100
O170        O  0.28776786  0.83681429  0.10083104    -0.79400
O171        O  0.29491223  0.77707617  0.05512976    -0.79500
C172        C  0.31697765  0.81100933  0.03411442     1.01100
Cr173      Cr  0.21499801  0.78796004  0.01869944     1.93700
Cr174      Cr  0.17854858  0.82292777  0.07681327     1.93200
Cr175      Cr  0.23939247  0.76776609  0.08490268     1.39100
O176        O  0.21102091  0.79310052  0.05995814    -1.24600
O177        O  0.14782008  0.61849447  0.32032901    -0.86800
O178        O  0.04448338  0.58528700  0.32495888    -0.83900
C179        C  0.99958750  0.56967062  0.31480147     0.96600
O180        O  0.97995268  0.53472575  0.29420863    -0.83900
O181        O  0.02945776  0.57844930  0.23855140    -0.86600
C182        C  0.06530176  0.59776641  0.21848258     1.01100
O183        O  0.09995383  0.58564249  0.21842643    -0.79300
O184        O  0.15210138  0.64072184  0.27064568    -0.79500
C185        C  0.16514443  0.65288378  0.29889909     1.01100
O186        O  0.12226195  0.51073224  0.32083263    -0.86800
O187        O  0.01959954  0.47976032  0.32948271    -0.83900
C188        C  0.99492539  0.44156348  0.31143513     0.96600
O189        O  0.99428267  0.44795861  0.28218846    -0.83900
O190        O  0.03607508  0.48679120  0.22462319    -0.86500
C191        C  0.07303367  0.47755843  0.22320843     1.01100
O192        O  0.11250692  0.50231492  0.23997315    -0.79400
O193        O  0.17729506  0.56374953  0.28625417    -0.79500
C194        C  0.16494143  0.52913223  0.30673142     1.01100
Cr195      Cr  0.08288319  0.54821612  0.32088785     1.93700
Cr196      Cr  0.01433402  0.51422084  0.26134265     1.93200
Cr197      Cr  0.13128131  0.57111008  0.25557864     1.39100
O198        O  0.07577701  0.54449503  0.27948998    -1.24600
O199        O  0.27808540  0.48112810  0.02707705    -0.86800
O200        O  0.24793081  0.37907030  0.02241246    -0.83900
C201        C  0.23123648  0.33325719  0.03109671     0.96600
O202        O  0.19328765  0.31133626  0.04987430    -0.83900
O203        O  0.23638452  0.35787270  0.10691027    -0.86600
C204        C  0.25426944  0.39197331  0.12794755     1.01100
O205        O  0.24261996  0.42695452  0.12821426    -0.79300
O206        O  0.29895261  0.48240774  0.07665648    -0.79500
C207        C  0.31178038  0.49762270  0.04867706     1.01100
O208        O  0.17046120  0.45400952  0.02556352    -0.86800
O209        O  0.14081363  0.35173911  0.01603482    -0.83900
C210        C  0.10150774  0.32678014  0.03360812     0.96600
O211        O  0.10660229  0.32543576  0.06296970    -0.83900
O212        O  0.14407925  0.36325328  0.12166047    -0.86500
C213        C  0.13534408  0.40038995  0.12411389     1.01100
O214        O  0.15931290  0.43990795  0.10716044    -0.79400
O215        O  0.22100835  0.50671478  0.06168515    -0.79500
C216        C  0.18807852  0.49577001  0.04035475     1.01100
Cr217      Cr  0.20871625  0.41544949  0.02568913     1.93700
Cr218      Cr  0.17231110  0.34381963  0.08400465     1.93200
Cr219      Cr  0.22861421  0.46001593  0.09163089     1.39100
O220        O  0.20300122  0.40617049  0.06693213    -1.24600
O221        O  0.54471465  0.82911297  0.02329211    -0.86800
O222        O  0.64722841  0.85800717  0.01567199    -0.83900
C223        C  0.67109313  0.89640692  0.03370668     0.96600
O224        O  0.67110660  0.89045886  0.06303006    -0.83900
O225        O  0.62966629  0.85400034  0.12107474    -0.86600
C226        C  0.59323914  0.86418471  0.12209854     1.01100
O227        O  0.55418122  0.83981293  0.10495818    -0.79300
O228        O  0.48937565  0.77894496  0.05881168    -0.79500
C229        C  0.50236750  0.81256340  0.03755758     1.01100
O230        O  0.51663204  0.72086277  0.02555879    -0.86800
O231        O  0.61983981  0.75159508  0.02154734    -0.83900
C232        C  0.66470425  0.76710151  0.03176055     0.96600
O233        O  0.68461841  0.80287467  0.05186599    -0.83900
O234        O  0.63417449  0.76040971  0.10718357    -0.86500
C235        C  0.59866078  0.74251170  0.12741008     1.01100
O236        O  0.56477050  0.75570737  0.12726063    -0.79400
O237        O  0.51200581  0.70046935  0.07561925    -0.79500
C238        C  0.49891347  0.68740250  0.04751538     1.01100
Cr239      Cr  0.58274656  0.79031741  0.02454223     1.93700
Cr240      Cr  0.65060334  0.82479336  0.08435575     1.93200
Cr241      Cr  0.53412792  0.77052070  0.08990105     1.39100
O242        O  0.58946265  0.79529917  0.06601820    -1.24600
O243        O  0.38154303  0.53627826  0.32344717    -0.86800
O244        O  0.41560437  0.46707349  0.32887095    -0.83900
C245        C  0.43247144  0.43819957  0.31992310     0.96600
O246        O  0.46928343  0.45409615  0.30023368    -0.83900
O247        O  0.42222404  0.45232895  0.24388361    -0.86600
C248        C  0.40024123  0.46553536  0.22370974     1.01100
O249        O  0.41016249  0.51154873  0.22225276    -0.79300
O250        O  0.35661732  0.51178074  0.27496951    -0.79500
C251        C  0.34598132  0.51693772  0.30296436     1.01100
O252        O  0.48844913  0.61915393  0.32081203    -0.86800
O253        O  0.52184059  0.54927733  0.33169429    -0.83900
C254        C  0.55996746  0.56376548  0.31311698     0.96600
O255        O  0.55293212  0.55581305  0.28400716    -0.83900
O256        O  0.51143915  0.55150644  0.22625232    -0.86500
C257        C  0.51864296  0.59685600  0.22375460     1.01100
O258        O  0.49224030  0.61052489  0.23984782    -0.79400
O259        O  0.43299327  0.61627207  0.28641603    -0.79500
C260        C  0.46842861  0.64112726  0.30592349     1.01100
Cr261      Cr  0.45222722  0.54234395  0.32333859     1.93700
Cr262      Cr  0.48661167  0.50544715  0.26493262     1.93200
Cr263      Cr  0.42512580  0.56055149  0.25761196     1.39100
O264        O  0.45476049  0.53590032  0.28210742    -1.39000
O265        O  0.71825357  0.20083439  0.98782627    -0.86800
O266        O  0.75170728  0.13083378  0.99266973    -0.83900
C267        C  0.76819110  0.10214126  0.98274906     0.96600
O268        O  0.80348987  0.11778355  0.96208063    -0.83900
O269        O  0.76094004  0.12310542  0.90607773    -0.86600
C270        C  0.74215512  0.13940872  0.88568495     1.01100
O271        O  0.75291515  0.18572583  0.88603008    -0.79300
O272        O  0.69668604  0.18222925  0.93826095    -0.79500
C273        C  0.68413516  0.18382738  0.96640272     1.01100
O274        O  0.82604628  0.28293961  0.98836018    -0.86800
O275        O  0.85719901  0.21174385  0.99749371    -0.83900
C276        C  0.89609876  0.22554962  0.97971730     0.96600
O277        O  0.89056336  0.21925582  0.95036806    -0.83900
O278        O  0.85279397  0.22228065  0.89213020    -0.86500
C279        C  0.86051332  0.26789160  0.89033213     1.01100
O280        O  0.83521623  0.28170237  0.90740914    -0.79400
O281        O  0.77341190  0.28462105  0.95363244    -0.79500
C282        C  0.80738384  0.30681515  0.97434049     1.01100
Cr283      Cr  0.78870218  0.20626432  0.98851199     1.93700
Cr284      Cr  0.82464881  0.17275779  0.92910678     1.93200
Cr285      Cr  0.76653080  0.23134772  0.92310976     1.39100
O286        O  0.79333854  0.20309590  0.94710359    -1.24600
O287        O  0.86930526  0.49269362  0.68712738    -0.86800
O288        O  0.97244895  0.52322299  0.67965392    -0.83900
C289        C  0.99556981  0.56109016  0.69810837     0.96600
O290        O  0.99426224  0.55426384  0.72737507    -0.83900
O291        O  0.95345752  0.51386931  0.78503673    -0.86600
C292        C  0.91604843  0.52232830  0.78724784     1.01100
O293        O  0.87710307  0.49840937  0.76988829    -0.79300
O294        O  0.81364889  0.44040630  0.72193246    -0.79500
C295        C  0.82623655  0.47429361  0.70084841     1.01100
O296        O  0.84308648  0.38550511  0.68671453    -0.86800
O297        O  0.94680844  0.41745048  0.68357284    -0.83900
C298        C  0.99188758  0.43393945  0.69376819     0.96600
O299        O  0.01093644  0.46941260  0.71407016    -0.83900
O300        O  0.96138992  0.42376212  0.76905388    -0.86500
C301        C  0.92608094  0.40439277  0.78936355     1.01100
O302        O  0.88948469  0.41384830  0.78893173    -0.79400
O303        O  0.83713499  0.36133429  0.73607309    -0.79500
C304        C  0.82485820  0.35041572  0.70761591     1.01100
Cr305      Cr  0.90850469  0.45500071  0.68734587     1.93700
Cr306      Cr  0.97552221  0.48808760  0.74734975     1.93200
Cr307      Cr  0.85849033  0.43048176  0.75245150     1.39100
O308        O  0.91437401  0.45783868  0.72888038    -1.24600
O309        O  0.79321857  0.51185811  0.99327609    -0.86800
O310        O  0.86636167  0.61392315  0.99688942    -0.83900
C311        C  0.89621944  0.65887756  0.98681298     0.96600
O312        O  0.88000024  0.68041044  0.96810582    -0.83900
O313        O  0.87636891  0.63252557  0.91149143    -0.86600
C314        C  0.85905135  0.59798836  0.89071271     1.01100
O315        O  0.81262444  0.56247278  0.89160083    -0.79300
O316        O  0.81316751  0.50886362  0.94386165    -0.79500
C317        C  0.81075679  0.49480370  0.97208973     1.01100
O318        O  0.71290695  0.53981268  0.99337838    -0.86800
O319        O  0.78690482  0.64237169  0.00236010    -0.83900
C320        C  0.77258131  0.66625367  0.98404642     0.96600
O321        O  0.77954588  0.66652639  0.95479839    -0.83900
O322        O  0.77938178  0.62743707  0.89691648    -0.86500
C323        C  0.73333421  0.59064323  0.89430492     1.01100
O324        O  0.71678061  0.55121163  0.91154871    -0.79400
O325        O  0.71112820  0.48557849  0.95851677    -0.79500
C326        C  0.68843957  0.49788961  0.97867637     1.01100
Cr327      Cr  0.79026724  0.57787648  0.99362712     1.93700
Cr328      Cr  0.82668338  0.64741238  0.93435429     1.93200
Cr329      Cr  0.76556413  0.53104800  0.92819384     1.39100
O330        O  0.79432662  0.58571705  0.95221584    -1.24600
O331        O  0.48384829  0.27751727  0.98744220    -0.86800
O332        O  0.38137839  0.24660143  0.99136594    -0.83900
C333        C  0.33599161  0.23089950  0.98217388     0.96600
O334        O  0.31494937  0.19477113  0.96232532    -0.83900
O335        O  0.36311791  0.24117697  0.90637246    -0.86600
C336        C  0.39948498  0.26307335  0.88677928     1.01100
O337        O  0.43463901  0.25166272  0.88563764    -0.79300
O338        O  0.48778828  0.30365534  0.93874503    -0.79500
C339        C  0.50117443  0.31358929  0.96715557     1.01100
O340        O  0.45690628  0.16997969  0.98541625    -0.86800
O341        O  0.35415317  0.13978532  0.99480755    -0.83900
C342        C  0.32997880  0.10191747  0.97643644     0.96600
O343        O  0.32982592  0.10913421  0.94726443    -0.83900
O344        O  0.37034706  0.15031956  0.88972789    -0.86500
C345        C  0.40766523  0.14161044  0.88784892     1.01100
O346        O  0.44771331  0.16730078  0.90399168    -0.79400
O347        O  0.51181938  0.22454621  0.95118818    -0.79500
C348        C  0.49949082  0.18899230  0.97105728     1.01100
Cr349      Cr  0.41822799  0.20811725  0.98680305     1.93700
Cr350      Cr  0.34898253  0.17612132  0.92775415     1.93200
Cr351      Cr  0.46632176  0.23473538  0.92156036     1.39100
O352        O  0.41087176  0.20617402  0.94548858    -1.24600
O353        O  0.61384739  0.12313174  0.68814367    -0.86800
O354        O  0.54120692  0.02059108  0.67980568    -0.83900
C355        C  0.55763117  0.99736940  0.69713730     0.96600
O356        O  0.55320722  0.99730514  0.72658507    -0.83900
O357        O  0.55441201  0.03425550  0.78550601    -0.86600
C358        C  0.60038820  0.07185043  0.78713278     1.01100
O359        O  0.61438295  0.11108666  0.77014104    -0.79300
O360        O  0.61724969  0.17630351  0.72448214    -0.79500
C361        C  0.63858776  0.16495740  0.70280443     1.01100
O362        O  0.53324374  0.14981182  0.69139445    -0.86800
O363        O  0.46110972  0.04716725  0.68827234    -0.83900
C364        C  0.43323481  0.00120567  0.69717012     0.96600
O365        O  0.45126101  0.97993810  0.71476231    -0.83900
O366        O  0.45487305  0.02612945  0.77146935    -0.86500
C367        C  0.47095666  0.06071260  0.79206842     1.01100
O368        O  0.51752357  0.09617913  0.79210032    -0.79400
O369        O  0.51493710  0.15112587  0.74126592    -0.79500
C370        C  0.51687108  0.16652761  0.71344144     1.01100
Cr371      Cr  0.53701656  0.08422038  0.68969919     1.93700
Cr372      Cr  0.50541454  0.01366776  0.74827778     1.93200
Cr373      Cr  0.56394494  0.12980980  0.75529048     1.39100
O374        O  0.53548902  0.07572372  0.73092285    -1.24600
O375        O  0.53822501  0.39089781  0.69237065    -0.86800
O376        O  0.46581039  0.42088911  0.68935110    -0.83900
C377        C  0.43718290  0.43796741  0.69843575     0.96600
O378        O  0.45478793  0.47689184  0.71624713    -0.83900
O379        O  0.45922211  0.43301239  0.77280785    -0.86600
C380        C  0.47582308  0.41490012  0.79353110     1.01100
O381        O  0.52266506  0.42677965  0.79349145    -0.79300
O382        O  0.52137376  0.37090647  0.74238086    -0.79500
C383        C  0.52199343  0.35761898  0.71437574     1.01100
O384        O  0.61890487  0.49805209  0.68918257    -0.86800
O385        O  0.54588884  0.52835324  0.68147606    -0.83900
C386        C  0.56225598  0.56746703  0.69918695     0.96600
O387        O  0.55694155  0.56225370  0.72859942    -0.83900
O388        O  0.55721929  0.52437715  0.78721952    -0.86500
C389        C  0.60315974  0.53297354  0.78953352     1.01100
O390        O  0.61903404  0.51039412  0.77169430    -0.79400
O391        O  0.62350859  0.44907858  0.72576954    -0.79500
C392        C  0.64389226  0.48058034  0.70333690     1.01100
Cr393      Cr  0.54190280  0.46021484  0.69096935     1.93700
Cr394      Cr  0.50912234  0.49703906  0.74982185     1.93200
Cr395      Cr  0.56956236  0.44116122  0.75654383     1.39100
O396        O  0.54027380  0.46634317  0.73225783    -1.24600
C397        C  0.47764100  0.21859367  0.73052039    -0.14800
C398        C  0.50586296  0.20869763  0.70793208     0.07300
C399        C  0.53092152  0.24459523  0.68356865    -0.14800
C400        C  0.53232949  0.29200141  0.68383698    -0.14800
C401        C  0.50870041  0.30390154  0.70847363     0.07300
C402        C  0.47905861  0.26572847  0.73079220    -0.14800
H403        H  0.45744695  0.19132668  0.74934464     0.11300
H404        H  0.55307096  0.23794913  0.66590866     0.11300
H405        H  0.55547556  0.32081174  0.66636977     0.11300
H406        H  0.45985670  0.27364958  0.74979341     0.11300
C407        C  0.43897684  0.35478642  0.87314335    -0.14800
C408        C  0.40379136  0.30356880  0.86544823     0.07300
C409        C  0.38479656  0.29155417  0.83464340    -0.14800
C410        C  0.40374325  0.32993285  0.81129778    -0.14800
C411        C  0.44249863  0.38023947  0.81855636     0.07300
C412        C  0.45841811  0.39278957  0.84985021    -0.14800
H413        H  0.45492549  0.36448483  0.89659673     0.11300
H414        H  0.35878722  0.25192589  0.82810976     0.11300
H415        H  0.39208227  0.31925290  0.78712717     0.11300
H416        H  0.48904261  0.43113378  0.85576452     0.11300
C417        C  0.45211744  0.05979422  0.84819724    -0.14800
C418        C  0.43758157  0.06104688  0.81712728     0.07300
C419        C  0.40286294  0.07843619  0.81073019    -0.14800
C420        C  0.38771154  0.10001648  0.83481654    -0.14800
C421        C  0.40765725  0.10450506  0.86521974     0.07300
C422        C  0.43698551  0.08106453  0.87210699    -0.14800
H423        H  0.47934894  0.04703334  0.85345295     0.11300
H424        H  0.39217174  0.08060318  0.78670418     0.11300
H425        H  0.36512700  0.11794603  0.82898676     0.11300
H426        H  0.45194146  0.08319680  0.89551478     0.11300
C427        C  0.59994800  0.45444372  0.95867997    -0.14800
C428        C  0.63333258  0.46136308  0.98360835     0.07300
C429        C  0.61797439  0.42244471  0.00638373    -0.14800
C430        C  0.57195876  0.37544680  0.00267321    -0.14800
C431        C  0.54131508  0.36657850  0.97580639     0.07300
C432        C  0.55439208  0.40752539  0.95477581    -0.14800
H433        H  0.61170349  0.48349626  0.94042448     0.11300
H434        H  0.64392355  0.42639343  0.02523470     0.11300
H435        H  0.56294522  0.34460594  0.01926396     0.11300
H436        H  0.53146436  0.40209238  0.93399363     0.11300
C437        C  0.64728613  0.56709720  0.87243970    -0.14800
C438        C  0.70088677  0.59023857  0.86840037     0.07300
C439        C  0.72222757  0.60425560  0.83811297    -0.14800
C440        C  0.69002572  0.58980900  0.81194228    -0.14800
C441        C  0.63620539  0.56273116  0.81585025     0.07300
C442        C  0.61510656  0.55419911  0.84627265    -0.14800
H443        H  0.63020142  0.55597059  0.89567489     0.11300
H444        H  0.76347694  0.62184791  0.83451071     0.11300
H445        H  0.70699568  0.59643182  0.78864478     0.11300
H446        H  0.57367901  0.53276707  0.84978874     0.11300
C447        C  0.77521465  0.25684222  0.72041277    -0.14800
C448        C  0.78487974  0.29726595  0.69971157     0.07300
C449        C  0.75053658  0.28787511  0.67479236    -0.14800
C450        C  0.70426941  0.24073268  0.67298098    -0.14800
C451        C  0.69253108  0.20242619  0.69570499     0.07300
C452        C  0.72938722  0.20981166  0.71839199    -0.14800
H453        H  0.80117844  0.26293150  0.73970787     0.11300
H454        H  0.75693944  0.31849649  0.65863837     0.11300
H455        H  0.67560662  0.23618572  0.65585239     0.11300
H456        H  0.72044266  0.18105858  0.73649607     0.11300
C457        C  0.74887903  0.46068366  0.67158894    -0.14800
C458        C  0.78864097  0.49032740  0.69275470     0.07300
C459        C  0.78367511  0.52489051  0.71261573    -0.14800
C460        C  0.73780712  0.52660330  0.71320801    -0.14800
C461        C  0.69641801  0.49391935  0.69385613     0.07300
C462        C  0.70302408  0.46254855  0.67209574    -0.14800
H463        H  0.75132860  0.43258064  0.65683302     0.11300
H464        H  0.81326548  0.54687814  0.72977255     0.11300
H465        H  0.73284620  0.54979120  0.73085591     0.11300
H466        H  0.67092675  0.43576241  0.65777121     0.11300
C467        C  0.88271483  0.57755700  0.80805593    -0.14800
C468        C  0.91492453  0.55646729  0.81190460     0.07300
C469        C  0.93895901  0.56160882  0.84112869    -0.14800
C470        C  0.92605123  0.58211084  0.86698646    -0.14800
C471        C  0.88971801  0.59830894  0.86360837     0.07300
C472        C  0.87035127  0.59834027  0.83364408    -0.14800
H473        H  0.86403645  0.57454050  0.78575974     0.11300
H474        H  0.96376592  0.54541033  0.84473212     0.11300
H475        H  0.94033410  0.58047947  0.89007233     0.11300
H476        H  0.84161481  0.60986545  0.83067239     0.11300
C477        C  0.59240793  0.14614311  0.95011539    -0.14800
C478        C  0.63049245  0.17132676  0.97310089     0.07300
C479        C  0.61885168  0.19190247  0.99953240    -0.14800
C480        C  0.57217401  0.19221414  0.00109368    -0.14800
C481        C  0.53659036  0.17144717  0.97645556     0.07300
C482        C  0.54607906  0.14651065  0.95172653    -0.14800
H483        H  0.60001081  0.12964433  0.92956326     0.11300
H484        H  0.64753878  0.21178828  0.01751816     0.11300
H485        H  0.56606861  0.21282191  0.01995712     0.11300
H486        H  0.51962030  0.13132759  0.93219865     0.11300
C487        C  0.65638063  0.07176749  0.86625959    -0.14800
C488        C  0.70879941  0.10661753  0.86033256     0.07300
C489        C  0.72575329  0.12068481  0.82925296    -0.14800
C490        C  0.69032324  0.10418264  0.80471462    -0.14800
C491        C  0.63720203  0.07375855  0.81086943     0.07300
C492        C  0.62065375  0.05514995  0.84155940    -0.14800
H493        H  0.64247219  0.06150645  0.89021717     0.11300
H494        H  0.76591102  0.14816496  0.82429648     0.11300
H495        H  0.70407215  0.11881999  0.78124555     0.11300
H496        H  0.57987426  0.03216334  0.84694853     0.11300
C497        C  0.85370858  0.39820864  0.95918964    -0.14800
C498        C  0.82335244  0.36045938  0.98141606     0.07300
C499        C  0.79674301  0.37152797  0.00446007    -0.14800
C500        C  0.79692092  0.41829750  0.00354846    -0.14800
C501        C  0.82300003  0.45390309  0.97920402     0.07300
C502        C  0.85367593  0.44466823  0.95811561    -0.14800
H503        H  0.87365166  0.38984512  0.94088838     0.11300
H504        H  0.77208455  0.34223365  0.02128751     0.11300
H505        H  0.77272745  0.42432645  0.01996701     0.11300
H506        H  0.87437726  0.47158971  0.93923338     0.11300
C507        C  0.91496365  0.35716107  0.87112351    -0.14800
C508        C  0.89427997  0.30422207  0.86603103     0.07300
C509        C  0.89620590  0.28677722  0.83568851    -0.14800
C510        C  0.91264417  0.32117552  0.81021688    -0.14800
C511        C  0.92751544  0.37297127  0.81516076     0.07300
C512        C  0.93111340  0.39123784  0.84581648    -0.14800
H513        H  0.91421680  0.37151216  0.89435230     0.11300
H514        H  0.88000602  0.24604958  0.83120453     0.11300
H515        H  0.90890059  0.30648710  0.78654200     0.11300
H516        H  0.94213064  0.43108621  0.84989939     0.11300
C517        C  0.71594759  0.95857582  0.98931712    -0.14800
C518        C  0.69865304  0.94913159  0.02067050     0.07300
C519        C  0.70612287  0.99061629  0.03960575    -0.14800
C520        C  0.72906898  0.04034826  0.02723234    -0.14800
C521        C  0.74618403  0.04983928  0.99590450     0.07300
C522        C  0.74022114  0.00875035  0.97713991    -0.14800
H523        H  0.71065587  0.92722945  0.97427551     0.11300
H524        H  0.69285511  0.98440061  0.06380141     0.11300
H525        H  0.73340826  0.07146697  0.04216465     0.11300
H526        H  0.75291725  0.01524214  0.95283301     0.11300
C527        C  0.68722519  0.72571276  0.98852170    -0.14800
C528        C  0.69431783  0.74343956  0.01960474     0.07300
C529        C  0.72832937  0.73661414  0.03905233    -0.14800
C530        C  0.75384519  0.71132053  0.02774231    -0.14800
C531        C  0.74684185  0.69380657  0.99653684     0.07300
C532        C  0.71366846  0.70178948  0.97700505    -0.14800
H533        H  0.66128049  0.73053998  0.97305049     0.11300
H534        H  0.73410530  0.74964029  0.06320344     0.11300
H535        H  0.77918037  0.70568965  0.04328980     0.11300
H536        H  0.70719176  0.68841661  0.95291565     0.11300
C537        C  0.57768255  0.65535439  0.14553343    -0.14800
C538        C  0.59594421  0.70746984  0.15223912     0.07300
C539        C  0.59838673  0.72305832  0.18345050    -0.14800
C540        C  0.57832965  0.68656721  0.20745177    -0.14800
C541        C  0.55465096  0.63388099  0.20052065     0.07300
C542        C  0.55714152  0.61850709  0.16970911    -0.14800
H543        H  0.57460881  0.64270551  0.12139470     0.11300
H544        H  0.61185990  0.76306635  0.18892834     0.11300
H545        H  0.57747181  0.69922871  0.23114000     0.11300
H546        H  0.53868868  0.57802662  0.16384602     0.11300
C547        C  0.00500242  0.27863690  0.03920585    -0.14800
C548        C  0.04902586  0.29885026  0.01974003     0.07300
C549        C  0.04222853  0.29348757  0.98700431    -0.14800
C550        C  0.99264115  0.26889137  0.97405009    -0.14800
C551        C  0.94863452  0.24937163  0.99350924     0.07300
C552        C  0.95547308  0.25436664  0.02625883    -0.14800
H553        H  0.00878965  0.28230696  0.06451809     0.11300
H554        H  0.07526630  0.30859946  0.97134753     0.11300
H555        H  0.98883510  0.26585376  0.94871953     0.11300
H556        H  0.92251863  0.23989150  0.04194827     0.11300
C557        C  0.31043894  0.33309647  0.01408139    -0.14800
C558        C  0.25691436  0.30571025  0.01908921     0.07300
C559        C  0.22898127  0.25292514  0.01208575    -0.14800
C560        C  0.25429685  0.22826248  0.99950586    -0.14800
C561        C  0.30800049  0.25579204  0.99481302     0.07300
C562        C  0.33579553  0.30826467  0.00247145    -0.14800
H563        H  0.33280626  0.37375904  0.01947381     0.11300
H564        H  0.18760660  0.23115433  0.01570785     0.11300
H565        H  0.23216934  0.18769777  0.99388072     0.11300
H566        H  0.37720141  0.33038006  0.99895494     0.11300
C567        C  0.40373003  0.54896226  0.06446016    -0.14800
C568        C  0.36516029  0.53916373  0.04240343     0.07300
C569        C  0.37608477  0.57449024  0.01771377    -0.14800
C570        C  0.42260976  0.62158424  0.01732339    -0.14800
C571        C  0.45851763  0.63363372  0.04160971     0.07300
C572        C  0.44995898  0.59570682  0.06404808    -0.14800
H573        H  0.39667274  0.52204133  0.08344528     0.11300
H574        H  0.34699555  0.56779050  0.00037147     0.11300
H575        H  0.42832665  0.65017868  0.99975541     0.11300
H576        H  0.47740525  0.60370546  0.08276179     0.11300
C577        C  0.37678527  0.42660282  0.17045412    -0.14800
C578        C  0.36201336  0.42885802  0.20153685     0.07300
C579        C  0.30960981  0.40899954  0.20854073    -0.14800
C580        C  0.27307054  0.39127409  0.18448157    -0.14800
C581        C  0.28824903  0.39250011  0.15307427     0.07300
C582        C  0.33998456  0.40809235  0.14634833    -0.14800
H583        H  0.41725354  0.44343949  0.16442239     0.11300
H584        H  0.29766575  0.41194758  0.23216002     0.11300
H585        H  0.23361535  0.38067285  0.19005516     0.11300
H586        H  0.35274582  0.41089373  0.12218570     0.11300
C587        C  0.25315191  0.47879635  0.28885679    -0.14800
C588        C  0.29326159  0.50673952  0.31026067     0.07300
C589        C  0.28483112  0.53272933  0.33504128    -0.14800
C590        C  0.23941031  0.53540403  0.33623105    -0.14800
C591        C  0.20168862  0.51141322  0.31300333     0.07300
C592        C  0.20788745  0.48133747  0.29016386    -0.14800
H593        H  0.25839386  0.45829538  0.26957164     0.11300
H594        H  0.31516328  0.55492593  0.35172288     0.11300
H595        H  0.23579275  0.55983497  0.35356177     0.11300
H596        H  0.17961306  0.46341789  0.27169754     0.11300
C597        C  0.09949139  0.41530412  0.20538933    -0.14800
C598        C  0.07355497  0.44254784  0.19939848     0.07300
C599        C  0.05726994  0.44417872  0.16877820    -0.14800
C600        C  0.07272312  0.42472703  0.14387361    -0.14800
C601        C  0.10320263  0.40214450  0.14953592     0.07300
C602        C  0.11365747  0.39452164  0.18055462    -0.14800
H603        H  0.11216984  0.41353160  0.22894320     0.11300
H604        H  0.03750449  0.46528243  0.16368187     0.11300
H605        H  0.06474745  0.43128710  0.11999985     0.11300
H606        H  0.13774216  0.37783148  0.18531237     0.11300
C607        C  0.03026250  0.76584576  0.00795447    -0.14800
C608        C  0.05564949  0.73801729  0.01373480     0.07300
C609        C  0.02833670  0.68423824  0.01065381    -0.14800
C610        C  0.97615168  0.65855298  0.00261792    -0.14800
C611        C  0.95074557  0.68631602  0.99661559     0.07300
C612        C  0.97840375  0.74024856  0.99892364    -0.14800
H613        H  0.05067510  0.80736374  0.01017406     0.11300
H614        H  0.04707151  0.66196902  0.01521329     0.11300
H615        H  0.95581751  0.61700032  0.00059593     0.11300
H616        H  0.95966992  0.76247591  0.99424669     0.11300
C617        C  0.27667505  0.98997353  0.03380779    -0.14800
C618        C  0.25465259  0.94719596  0.01361174     0.07300
C619        C  0.25558628  0.95570879  0.98107425    -0.14800
C620        C  0.27882781  0.00594806  0.96901551    -0.14800
C621        C  0.30193841  0.04870578  0.98923677     0.07300
C622        C  0.30011403  0.04004484  0.02177957    -0.14800
H623        H  0.27668079  0.98485719  0.05902083     0.11300
H624        H  0.23876767  0.92360451  0.96492859     0.11300
H625        H  0.27960038  0.01128745  0.94379087     0.11300
H626        H  0.31747670  0.07200612  0.03801067     0.11300
C627        C  0.15058048  0.59302205  0.05860588    -0.14800
C628        C  0.17878792  0.63063544  0.03563313     0.07300
C629        C  0.19881986  0.61723934  0.00966476    -0.14800
C630        C  0.19591009  0.56909104  0.00875166    -0.14800
C631        C  0.17248417  0.53392469  0.03358555     0.07300
C632        C  0.14769924  0.54523203  0.05764444    -0.14800
H633        H  0.13413735  0.60193651  0.07870138     0.11300
H634        H  0.22075497  0.64547019  0.99164772     0.11300
H635        H  0.21636412  0.56147150  0.99040522     0.11300
H636        H  0.13024470  0.51891808  0.07728427     0.11300
C637        C  0.07399796  0.65550945  0.13918654    -0.14800
C638        C  0.10982291  0.70722746  0.14551122     0.07300
C639        C  0.12184728  0.72339975  0.17679957    -0.14800
C640        C  0.10131577  0.68769927  0.20138418    -0.14800
C641        C  0.06912681  0.63529051  0.19495285     0.07300
C642        C  0.05407834  0.61954782  0.16383647    -0.14800
H643        H  0.06543294  0.64216388  0.11512963     0.11300
H644        H  0.15031527  0.76296661  0.18202539     0.11300
H645        H  0.11448778  0.70025809  0.22513611     0.11300
H646        H  0.03060974  0.57900675  0.15839838     0.11300
C647        C  0.45268895  0.85328298  0.05444319    -0.14800
C648        C  0.46612301  0.83055911  0.03019169     0.07300
C649        C  0.43481191  0.81238119  0.00341417    -0.14800
C650        C  0.38774245  0.81201670  0.00251970    -0.14800
C651        C  0.37198977  0.82985943  0.02839377     0.07300
C652        C  0.40599198  0.85296337  0.05354361    -0.14800
H653        H  0.47586547  0.86659554  0.07553246     0.11300
H654        H  0.44397310  0.79354596  0.98484913     0.11300
H655        H  0.36141219  0.79288752  0.98328871     0.11300
H656        H  0.39407875  0.86603750  0.07395799     0.11300
C657        C  0.46398045  0.75809222  0.33187089    -0.14800
C658        C  0.48583011  0.79000863  0.30531259     0.07300
C659        C  0.51115706  0.77632062  0.28272202    -0.14800
C660        C  0.51037789  0.72953770  0.28506961    -0.14800
C661        C  0.48484646  0.69575496  0.31014324     0.07300
C662        C  0.46319345  0.71102614  0.33414770    -0.14800
H663        H  0.44389964  0.76743784  0.34956282     0.11300
H664        H  0.52851330  0.80008487  0.26205894     0.11300
H665        H  0.52612464  0.71784239  0.26595910     0.11300
H666        H  0.44201705  0.68479095  0.35321825     0.11300
C667        C  0.59836673  0.92611579  0.20005899    -0.14800
C668        C  0.56283150  0.94277512  0.19446917     0.07300
C669        C  0.54724500  0.94378019  0.16357350    -0.14800
C670        C  0.56205759  0.92296274  0.13916861    -0.14800
C671        C  0.59261066  0.90055390  0.14524744     0.07300
C672        C  0.61347596  0.90527592  0.17544581    -0.14800
H673        H  0.60986767  0.92395404  0.22387766     0.11300
H674        H  0.51931327  0.95584811  0.15886116     0.11300
H675        H  0.54595634  0.92038405  0.11603431     0.11300
H676        H  0.63692819  0.88807973  0.18074294     0.11300
C677        C  0.26540289  0.79116771  0.28455873    -0.14800
C678        C  0.29909849  0.80032389  0.30964632     0.07300
C679        C  0.28337608  0.76473033  0.33448493    -0.14800
C680        C  0.23652291  0.71809041  0.33267914    -0.14800
C681        C  0.20538191  0.70654464  0.30581827     0.07300
C682        C  0.21881402  0.74483830  0.28272279    -0.14800
H683        H  0.27729773  0.81787339  0.26493413     0.11300
H684        H  0.30947184  0.77068158  0.35366425     0.11300
H685        H  0.22718906  0.68930565  0.35081414     0.11300
H686        H  0.19543295  0.73735151  0.26189958     0.11300
C687        C  0.28449425  0.89206572  0.17244922    -0.14800
C688        C  0.30505692  0.89417398  0.14243342     0.07300
C689        C  0.35886212  0.92023030  0.13825578    -0.14800
C690        C  0.39151927  0.93945960  0.16416816    -0.14800
C691        C  0.37062090  0.93154531  0.19457301     0.07300
C692        C  0.31711753  0.90991818  0.19848095    -0.14800
H693        H  0.24312431  0.87177366  0.17622479     0.11300
H694        H  0.37546044  0.92228558  0.11525565     0.11300
H695        H  0.43262745  0.95543257  0.16071549     0.11300
H696        H  0.30035282  0.90309451  0.22184846     0.11300
C697        C  0.59744247  0.68221764  0.64577676    -0.14800
C698        C  0.63966827  0.72175946  0.66186056     0.07300
C699        C  0.65572106  0.70980170  0.69007038    -0.14800
C700        C  0.63000630  0.65972199  0.70208825    -0.14800
C701        C  0.58837904  0.62008099  0.68585185     0.07300
C702        C  0.57241009  0.63158673  0.65748023    -0.14800
H703        H  0.58448588  0.69023298  0.62385529     0.11300
H704        H  0.68812109  0.73928996  0.70300006     0.11300
H705        H  0.64322141  0.65174691  0.72393831     0.11300
H706        H  0.54025993  0.60161888  0.64463218     0.11300
C707        C  0.60793203  0.93856217  0.63789045    -0.14800
C708        C  0.63375044  0.92105519  0.65754795     0.07300
C709        C  0.63279575  0.92747312  0.69015974    -0.14800
C710        C  0.60727853  0.95145838  0.70284501    -0.14800
C711        C  0.58226109  0.96984758  0.68323200     0.07300
C712        C  0.58253852  0.96288667  0.65061679    -0.14800
H713        H  0.60800894  0.93419687  0.61262598     0.11300
H714        H  0.65226917  0.91445902  0.70594212     0.11300
H715        H  0.60795603  0.95636004  0.72809257     0.11300
H716        H  0.56353231  0.97657391  0.63494425     0.11300
C717        C  0.67427093  0.60845232  0.36798707    -0.14800
C718        C  0.71528891  0.64342691  0.34877935     0.07300
C719        C  0.70500431  0.65109092  0.31766607    -0.14800
C720        C  0.65469263  0.62422212  0.30595993    -0.14800
C721        C  0.61338407  0.59020763  0.32538989     0.07300
C722        C  0.62367297  0.58263219  0.35654072    -0.14800
H723        H  0.68118523  0.60212192  0.39212997     0.11300
H724        H  0.73594609  0.67774729  0.30236331     0.11300
H725        H  0.64790105  0.63100203  0.28188245     0.11300
H726        H  0.59262463  0.55654999  0.37198537     0.11300
C727        C  0.90847142  0.62254221  0.32055627    -0.14800
C728        C  0.91775373  0.64167302  0.35138063     0.07300
C729        C  0.95272531  0.63548243  0.37019787    -0.14800
C730        C  0.97890163  0.61170067  0.35826727    -0.14800
C731        C  0.96975135  0.59248856  0.32751463     0.07300
C732        C  0.93380057  0.59741343  0.30883688    -0.14800
H733        H  0.88153793  0.62678147  0.30567871     0.11300
H734        H  0.96077301  0.65017131  0.39399496     0.11300
H735        H  0.00635903  0.60829105  0.37313124     0.11300
H736        H  0.92643452  0.58315212  0.28494851     0.11300
C737        C  0.78935859  0.73713581  0.51612653    -0.14800
C738        C  0.77213473  0.73297039  0.48508274     0.07300
C739        C  0.73241120  0.74339661  0.47827834    -0.14800
C740        C  0.71417713  0.76316935  0.50173434    -0.14800
C741        C  0.73496667  0.77155507  0.53210438     0.07300
C742        C  0.77064056  0.75601712  0.53951002    -0.14800
H743        H  0.82053554  0.72999057  0.52168368     0.11300
H744        H  0.71958826  0.74155208  0.45428841     0.11300
H745        H  0.68742885  0.77609052  0.49552846     0.11300
H746        H  0.78746760  0.76292119  0.56272057     0.11300
C747        C  0.41017706  0.30861351  0.34894640    -0.14800
C748        C  0.35658788  0.28240609  0.35429179     0.07300
C749        C  0.32902955  0.30812004  0.34880439    -0.14800
C750        C  0.35430762  0.35898554  0.33828420    -0.14800
C751        C  0.40754953  0.38498173  0.33218403     0.07300
C752        C  0.43540264  0.35938713  0.33742807    -0.14800
H753        H  0.43220904  0.28951581  0.35303586     0.11300
H754        H  0.28778696  0.28896147  0.35299091     0.11300
H755        H  0.33191612  0.37775329  0.33426414     0.11300
H756        H  0.47655074  0.37878875  0.33294937     0.11300
C757        C  0.38273590  0.05831036  0.37299997    -0.14800
C758        C  0.36051198  0.08006633  0.35369476     0.07300
C759        C  0.36469224  0.07754764  0.32089153    -0.14800
C760        C  0.39026635  0.05363584  0.30774149    -0.14800
C761        C  0.41200044  0.03139756  0.32708182     0.07300
C762        C  0.40800541  0.03415438  0.35986417    -0.14800
H763        H  0.38009206  0.05937297  0.39836162     0.11300
H764        H  0.34799959  0.09385557  0.30534533     0.11300
H765        H  0.39240948  0.05199064  0.28238324     0.11300
H766        H  0.42419570  0.01737800  0.37544174     0.11300
C767        C  0.08892776  0.96066938  0.34272768    -0.14800
C768        C  0.12383597  0.97013101  0.36724700     0.07300
C769        C  0.11272289  0.93118071  0.38937697    -0.14800
C770        C  0.06571087  0.88493384  0.38845411    -0.14800
C771        C  0.02900873  0.87694307  0.36544000     0.07300
C772        C  0.04162159  0.91427389  0.34186487    -0.14800
H773        H  0.09609839  0.99090779  0.32605261     0.11300
H774        H  0.13850790  0.93830308  0.40894748     0.11300
H775        H  0.05609770  0.85727702  0.40735666     0.11300
H776        H  0.01312929  0.90957498  0.32456878     0.11300
C777        C  0.06076372  0.67264882  0.64114381    -0.14800
C778        C  0.07593299  0.71504745  0.66118382     0.07300
C779        C  0.06583298  0.70637008  0.69353420    -0.14800
C780        C  0.04050416  0.65630024  0.70554833    -0.14800
C781        C  0.02452298  0.61392070  0.68542640     0.07300
C782        C  0.03516588  0.62257130  0.65313799    -0.14800
H783        H  0.06799633  0.67806303  0.61607263     0.11300
H784        H  0.07693926  0.73820775  0.70954016     0.11300
H785        H  0.03258611  0.65076125  0.73055587     0.11300
H786        H  0.02343923  0.59065324  0.63711006     0.11300
C787        C  0.35043159  0.99794830  0.68653736    -0.14800
C788        C  0.37916741  0.97273725  0.68697943     0.07300
C789        C  0.35609187  0.92129014  0.67720294    -0.14800
C790        C  0.30521938  0.89593496  0.66619011    -0.14800
C791        C  0.27645682  0.92131656  0.66576651     0.07300
C792        C  0.29940330  0.97231777  0.67642934    -0.14800
H793        H  0.36749395  0.03756204  0.69417956     0.11300
H794        H  0.37780080  0.90128695  0.67733109     0.11300
H795        H  0.28835372  0.85659321  0.65811342     0.11300
H796        H  0.27829228  0.99293474  0.67620004     0.11300
C797        C  0.95100651  0.86287075  0.66902359    -0.14800
C798        C  0.96399063  0.83814594  0.64579108     0.07300
C799        C  0.92888157  0.81158857  0.62171236    -0.14800
C800        C  0.88367102  0.81387671  0.61907101    -0.14800
C801        C  0.87293140  0.84297452  0.64043722     0.07300
C802        C  0.90542373  0.86495440  0.66650781    -0.14800
H803        H  0.97837227  0.88476669  0.68727456     0.11300
H804        H  0.93883507  0.79324787  0.60320956     0.11300
H805        H  0.85921054  0.79620513  0.59891485     0.11300
H806        H  0.89817306  0.88773931  0.68328548     0.11300
C807        C  0.26035867  0.01066077  0.53827105    -0.14800
C808        C  0.22860648  0.95798766  0.53200201     0.07300
C809        C  0.21711531  0.94146753  0.50079446    -0.14800
C810        C  0.23219517  0.97729345  0.47641513    -0.14800
C811        C  0.25908993  0.03022640  0.48288271     0.07300
C812        C  0.27592021  0.04676819  0.51369646    -0.14800
H813        H  0.26839100  0.02412186  0.56232026     0.11300
H814        H  0.19184287  0.90105135  0.49561005     0.11300
H815        H  0.21892779  0.96371270  0.45281206     0.11300
H816        H  0.29621868  0.08743594  0.51923621     0.11300
C817        C  0.05391785  0.78411311  0.50034642    -0.14800
C818        C  0.03369649  0.77347917  0.53098124     0.07300
C819        C  0.98022911  0.74232766  0.53548577    -0.14800
C820        C  0.94702519  0.72588296  0.50971917    -0.14800
C821        C  0.96692608  0.74185928  0.47927709     0.07300
C822        C  0.02064767  0.76899854  0.47462405    -0.14800
H823        H  0.09499025  0.80872192  0.49641122     0.11300
H824        H  0.96397073  0.73416413  0.55900844     0.11300
H825        H  0.90574150  0.70549428  0.51387154     0.11300
H826        H  0.03671471  0.78185880  0.45129921     0.11300
C827        C  0.30793442  0.41340691  0.66740718    -0.14800
C828        C  0.28045513  0.35932429  0.66539733     0.07300
C829        C  0.30442646  0.33179255  0.67540828    -0.14800
C830        C  0.35525933  0.35769494  0.68616361    -0.14800
C831        C  0.38284862  0.41164789  0.68803742     0.07300
C832        C  0.35849134  0.43934111  0.67913777    -0.14800
H833        H  0.29026894  0.43554138  0.65998723     0.11300
H834        H  0.28432000  0.29015370  0.67407437     0.11300
H835        H  0.37311368  0.33549168  0.69310608     0.11300
H836        H  0.37906758  0.48098676  0.68036106     0.11300
C837        C  0.01690669  0.39479479  0.65040693    -0.14800
C838        C  0.02288303  0.41188051  0.68158621     0.07300
C839        C  0.05733783  0.40608401  0.70122750    -0.14800
C840        C  0.08413405  0.38204946  0.69009117    -0.14800
C841        C  0.07800401  0.36487465  0.65887030     0.07300
C842        C  0.04470500  0.37219495  0.63904595    -0.14800
H843        H  0.99072290  0.39898376  0.63479388     0.11300
H844        H  0.06235288  0.41877472  0.72543696     0.11300
H845        H  0.10963637  0.37696700  0.70580510     0.11300
H846        H  0.03901071  0.35907207  0.61490945     0.11300
C847        C  0.88141523  0.07385153  0.62564767    -0.14800
C848        C  0.87302773  0.03400601  0.64645153     0.07300
C849        C  0.91016957  0.04317879  0.66944461    -0.14800
C850        C  0.95667801  0.09033553  0.67014523    -0.14800
C851        C  0.96654341  0.12885361  0.64787238     0.07300
C852        C  0.92781373  0.12092201  0.62636038    -0.14800
H853        H  0.85396810  0.06700856  0.60713631     0.11300
H854        H  0.90517353  0.01235599  0.68500104     0.11300
H855        H  0.98676210  0.09488971  0.68612772     0.11300
H856        H  0.93534110  0.14938485  0.60828683     0.11300
C857        C  0.18387755  0.11608752  0.61744439    -0.14800
C858        C  0.15438530  0.12530833  0.63941611     0.07300
C859        C  0.12940695  0.08962366  0.66389303    -0.14800
C860        C  0.12910934  0.04274575  0.66414500    -0.14800
C861        C  0.15384465  0.03132040  0.63993927     0.07300
C862        C  0.18367593  0.06961001  0.61773207    -0.14800
H863        H  0.20418386  0.14331566  0.59862074     0.11300
H864        H  0.10642711  0.09588331  0.68113947     0.11300
H865        H  0.10589207  0.01387985  0.68156504     0.11300
H866        H  0.20384559  0.06216355  0.59910642     0.11300
C867        C  0.26759565  0.26196591  0.53509488    -0.14800
C868        C  0.22678698  0.27092879  0.52854841     0.07300
C869        C  0.20872340  0.26540549  0.49759156    -0.14800
C870        C  0.22770064  0.24674204  0.47418348    -0.14800
C871        C  0.26462787  0.23271979  0.48134417     0.07300
C872        C  0.28615125  0.24241140  0.51158503    -0.14800
H873        H  0.28120087  0.26482855  0.55897483     0.11300
H874        H  0.17678908  0.27142165  0.49213134     0.11300
H875        H  0.21019602  0.23884317  0.45114567     0.11300
H876        H  0.31380006  0.23061094  0.51771871     0.11300
C877        C  0.92283289  0.29568479  0.31774557    -0.14800
C878        C  0.91751428  0.28819372  0.35046377     0.07300
C879        C  0.93645436  0.33153657  0.37010055    -0.14800
C880        C  0.96088960  0.38119193  0.35741100    -0.14800
C881        C  0.96669193  0.38879402  0.32474849     0.07300
C882        C  0.94700308  0.34547979  0.30501178    -0.14800
H883        H  0.90868833  0.26313459  0.30199705     0.11300
H884        H  0.93313570  0.32720033  0.39542719     0.11300
H885        H  0.97559152  0.41367745  0.37325014     0.11300
H886        H  0.95110707  0.35006594  0.27972084     0.11300
C887        C  0.64001721  0.99941789  0.33611650    -0.14800
C888        C  0.61401326  0.02631402  0.32926768     0.07300
C889        C  0.63981745  0.07994900  0.33355522    -0.14800
C890        C  0.69057101  0.10604453  0.34485504    -0.14800
C891        C  0.71682685  0.07912970  0.35100253     0.07300
C892        C  0.69108823  0.02563208  0.34643753    -0.14800
H893        H  0.62114776  0.95813256  0.33285641     0.11300
H894        H  0.62054650  0.10153463  0.32849862     0.11300
H895        H  0.70962786  0.14730361  0.34823035     0.11300
H896        H  0.71032817  0.00393018  0.35127410     0.11300
C897        C  0.86163525  0.96022238  0.35196078    -0.14800
C898        C  0.84046204  0.97285846  0.37764237     0.07300
C899        C  0.81312146  0.93545891  0.40080886    -0.14800
C900        C  0.81195283  0.88851123  0.40021953    -0.14800
C901        C  0.83826012  0.87815924  0.37651815     0.07300
C902        C  0.86055126  0.91304770  0.35140455    -0.14800
H903        H  0.88273471  0.98833280  0.33371186     0.11300
H904        H  0.79562664  0.94382250  0.42058704     0.11300
H905        H  0.79371944  0.86190391  0.41962480     0.11300
H906        H  0.88102104  0.90593854  0.33283281     0.11300
C907        C  0.01989002  0.26515037  0.47598680    -0.14800
C908        C  0.96626822  0.23697509  0.48100619     0.07300
C909        C  0.94687330  0.22924539  0.51180148    -0.14800
C910        C  0.98063300  0.24352321  0.53724700    -0.14800
C911        C  0.03409996  0.26702644  0.53212371     0.07300
C912        C  0.05368435  0.28073743  0.50145430    -0.14800
H913        H  0.03554821  0.27111803  0.45235648     0.11300
H914        H  0.90569378  0.20697122  0.51618566     0.11300
H915        H  0.96484880  0.23253584  0.56078992     0.11300
H916        H  0.09474374  0.29839219  0.49697865     0.11300
C917        C  0.78244515  0.06410538  0.51536971    -0.14800
C918        C  0.77046902  0.04904203  0.48396401     0.07300
C919        C  0.73834553  0.99668650  0.47692836    -0.14800
C920        C  0.72284850  0.95943992  0.50083905    -0.14800
C921        C  0.73994294  0.97452358  0.53177936     0.07300
C922        C  0.76720155  0.02717027  0.53909800    -0.14800
H923        H  0.80796244  0.10422971  0.52115326     0.11300
H924        H  0.72991704  0.98432286  0.45269425     0.11300
H925        H  0.70225845  0.91904091  0.49462792     0.11300
H926        H  0.78060373  0.03966670  0.56282347     0.11300
C927        C  0.11045076  0.18685394  0.39798792    -0.14800
C928        C  0.12273616  0.16025565  0.37558828     0.07300
C929        C  0.09183614  0.14121642  0.34857464    -0.14800
C930        C  0.04647131  0.14380681  0.34583472    -0.14800
C931        C  0.03197659  0.16611427  0.36982528     0.07300
C932        C  0.06552883  0.18970591  0.39511759    -0.14800
H933        H  0.13350620  0.20223274  0.41893173     0.11300
H934        H  0.10023894  0.12042591  0.33093537     0.11300
H935        H  0.02037684  0.12406700  0.32660877     0.11300
H936        H  0.05447030  0.20610084  0.41422767     0.11300
loop_ 
_geom_bond_atom_site_label_1 
_geom_bond_atom_site_label_2 
_geom_bond_distance 
_geom_bond_site_symmetry_2 
_ccdc_geom_bond_type 
O1          Cr19   2.022       .  S
O1            C9   1.271       .  A
O2          Cr19   1.977       .  S
O2            C3   1.260       .  A
C3            O4   1.267       .  A
C3          C891   1.479       .  S
O4          Cr20   2.015       .  S
O5          Cr20   1.998       .  S
O5            C6   1.259       .  A
C6            O7   1.259       .  A
C6          C918   1.466       .  S
O7          Cr21   1.992       .  S
O8          Cr21   1.963       .  S
O8            C9   1.261       .  A
C9          C898   1.474   1_545  S
O10         Cr19   2.004       .  S
O10          C18   1.262       .  A
O11         Cr19   2.018       .  S
O11          C12   1.270       .  A
C12          O13   1.260       .  A
C12         C878   1.482       .  S
O13         Cr20   1.965       .  S
O14         Cr20   2.035       .  S
O14          C15   1.273       .  A
C15          O16   1.258       .  A
C15         C908   1.469       .  S
O16         Cr21   1.961       .  S
O17         Cr21   1.983       .  S
O17          C18   1.258       .  A
C18         C931   1.468   1_655  S
Cr19         O22   1.768       .  S
Cr20         O22   1.770       .  S
Cr21         O22   1.753       .  S
O23         Cr41   2.027       .  S
O23          C31   1.272       .  A
O24         Cr41   1.979       .  S
O24          C25   1.260       .  A
C25          O26   1.267       .  A
C25         C828   1.483       .  S
O26         Cr42   2.017       .  S
O27         Cr42   2.003       .  S
O27          C28   1.262       .  A
C28          O29   1.261       .  A
C28         C868   1.473       .  S
O29         Cr43   1.997       .  S
O30         Cr43   1.963       .  S
O30          C31   1.262       .  A
C31         C858   1.475       .  S
O32         Cr41   2.003       .  S
O32          C40   1.262       .  A
O33         Cr41   2.021       .  S
O33          C34   1.270       .  A
C34          O35   1.259       .  A
C34         C841   1.479       .  S
O35         Cr42   1.966       .  S
O36         Cr42   2.029       .  S
O36          C37   1.271       .  A
C37          O38   1.259       .  A
C37         C911   1.470       .  S
O38         Cr43   1.965       .  S
O39         Cr43   1.991       .  S
O39          C40   1.259       .  A
C40         C851   1.473   1_455  S
Cr41         O44   1.772       .  S
Cr42         O44   1.772       .  S
Cr43         O44   1.756       .  S
O45         Cr63   1.994       .  S
O45          C53   1.260       .  A
O46         Cr63   2.013       .  S
O46          C47   1.270       .  A
C47          O48   1.259       .  A
C47         C778   1.476       .  S
O48         Cr64   1.961       .  S
O49         Cr64   2.030       .  S
O49          C50   1.271       .  A
C50          O51   1.258       .  A
C50         C818   1.468       .  S
O51         Cr65   1.964       .  S
O52         Cr65   1.987       .  S
O52          C53   1.259       .  A
C53         C798   1.463   1_455  S
O54         Cr63   2.028       .  S
O54          C62   1.271       .  A
O55         Cr63   1.968       .  S
O55          C56   1.259       .  A
C56          O57   1.266       .  A
C56         C791   1.476       .  S
O57         Cr64   2.012       .  S
O58         Cr64   1.995       .  S
O58          C59   1.259       .  A
C59          O60   1.261       .  A
C59         C808   1.464       .  S
O60         Cr65   1.992       .  S
O61         Cr65   1.960       .  S
O61          C62   1.260       .  A
C62         C861   1.475   1_565  S
Cr63         O66   1.769       .  S
Cr64         O66   1.771       .  S
Cr65         O66   1.751       .  S
O67         Cr85   2.024       .  S
O67          C75   1.270       .  A
O68         Cr85   1.970       .  S
O68          C69   1.259       .  A
C69          O70   1.267       .  A
C69         C748   1.477       .  S
O70         Cr86   2.018       .  S
O71         Cr86   1.994       .  S
O71          C72   1.260       .  A
C72          O73   1.262       .  A
C72         C871   1.469       .  S
O73         Cr87   2.000       .  S
O74         Cr87   1.975       .  S
O74          C75   1.262       .  A
C75         C928   1.484       .  S
O76         Cr85   1.994       .  S
O76          C84   1.261       .  A
O77         Cr85   2.019       .  S
O77          C78   1.270       .  A
C78          O79   1.262       .  A
C78         C758   1.486       .  S
O79         Cr86   1.975       .  S
O80         Cr86   2.029       .  S
O80          C81   1.269       .  A
C81          O82   1.259       .  A
C81         C811   1.473       .  S
O82         Cr87   1.965       .  S
O83         Cr87   1.996       .  S
O83          C84   1.262       .  A
C84         C768   1.471   1_545  S
Cr85         O88   1.771       .  S
Cr86         O88   1.778       .  S
Cr87         O88   1.757       .  S
O89        Cr107   2.002       .  S
O89          C97   1.260       .  A
O90        Cr107   2.015       .  S
O90          C91   1.269       .  A
C91          O92   1.259       .  A
C91         C728   1.473       .  S
O92        Cr108   1.962       .  S
O93        Cr108   2.031       .  S
O93          C94   1.272       .  A
C94          O95   1.259       .  A
C94         C821   1.470       .  S
O95        Cr109   1.964       .  S
O96        Cr109   1.990       .  S
O96          C97   1.258       .  A
C97         C771   1.471   1_655  S
O98        Cr107   2.029       .  S
O98         C106   1.274       .  A
O99        Cr107   1.977       .  S
O99         C100   1.261       .  A
C100        O101   1.267       .  A
C100        C718   1.480       .  S
O101       Cr108   2.007       .  S
O102       Cr108   1.994       .  S
O102        C103   1.258       .  A
C103        O104   1.260       .  A
C103        C738   1.466       .  S
O104       Cr109   1.996       .  S
O105       Cr109   1.957       .  S
O105        C106   1.260       .  A
C106        C901   1.474       .  S
Cr107       O110   1.775       .  S
Cr108       O110   1.769       .  S
Cr109       O110   1.757       .  S
O111       Cr129   1.998       .  S
O111        C119   1.261       .  A
O112       Cr129   2.007       .  S
O112        C113   1.268       .  A
C113        O114   1.259       .  A
C113        C708   1.479       .  S
O114       Cr130   1.969       .  S
O115       Cr130   2.033       .  S
O115        C116   1.271       .  A
C116        O117   1.259       .  A
C116        C921   1.474       .  S
O117       Cr131   1.961       .  S
O118       Cr131   1.999       .  S
O118        C119   1.261       .  A
C119        C848   1.473   1_565  S
O120       Cr129   2.022       .  S
O120        C128   1.270       .  A
O121       Cr129   1.971       .  S
O121        C122   1.261       .  A
C122        O123   1.268       .  A
C122        C698   1.483       .  S
O123       Cr130   2.015       .  S
O124       Cr130   1.985       .  S
O124        C125   1.256       .  A
C125        O126   1.261       .  A
C125        C741   1.463       .  S
O126       Cr131   1.999       .  S
O127       Cr131   1.970       .  S
O127        C128   1.262       .  A
C128        C801   1.479       .  S
Cr129       O132   1.772       .  S
Cr130       O132   1.778       .  S
Cr131       O132   1.758       .  S
O133       Cr151   2.027       .  S
O133        C141   1.271       .  A
O134       Cr151   1.977       .  S
O134        C135   1.261       .  A
C135        O136   1.268   1_565  A
C135        C888   1.480   1_565  S
O136       Cr152   2.017   1_545  S
O137       Cr152   2.000       .  S
O137        C138   1.262       .  A
C138        O139   1.261       .  A
C138        C668   1.468       .  S
O139       Cr153   1.992       .  S
O140       Cr153   1.971       .  S
O140        C141   1.262       .  A
C141        C658   1.483       .  S
O142       Cr151   1.997       .  S
O142        C150   1.261       .  A
O143       Cr151   2.016       .  S
O143        C144   1.270   1_565  A
C144        O145   1.261       .  A
C144        C761   1.486       .  S
O145       Cr152   1.977   1_545  S
O146       Cr152   2.027       .  S
O146        C147   1.269       .  A
C147        O148   1.258       .  A
C147        C691   1.467       .  S
O148       Cr153   1.966       .  S
O149       Cr153   1.986       .  S
O149        C150   1.259       .  A
C150        C678   1.466       .  S
Cr151       O154   1.769       .  S
Cr152       O154   1.773       .  S
Cr153       O154   1.755       .  S
O155       Cr173   2.031       .  S
O155        C163   1.272       .  A
O156       Cr173   1.976       .  S
O156        C157   1.259       .  A
C157        O158   1.266       .  A
C157        C608   1.473       .  S
O158       Cr174   2.010       .  S
O159       Cr174   1.993       .  S
O159        C160   1.260       .  A
C160        O161   1.262       .  A
C160        C638   1.467       .  S
O161       Cr175   2.001       .  S
O162       Cr175   1.964       .  S
O162        C163   1.261       .  A
C163        C628   1.480       .  S
O164       Cr173   1.996       .  S
O164        C172   1.260       .  A
O165       Cr173   2.026       .  S
O165        C166   1.272       .  A
C166        O167   1.259       .  A
C166        C618   1.483       .  S
O167       Cr174   1.962       .  S
O168       Cr174   2.026       .  S
O168        C169   1.270       .  A
C169        O170   1.258       .  A
C169        C688   1.470       .  S
O170       Cr175   1.964       .  S
O171       Cr175   1.991       .  S
O171        C172   1.261       .  A
C172        C651   1.468       .  S
Cr173       O176   1.771       .  S
Cr174       O176   1.769       .  S
Cr175       O176   1.753       .  S
O177       Cr195   2.030       .  S
O177        C185   1.273       .  A
O178       Cr195   1.967       .  S
O178        C179   1.260   1_455  A
C179        O180   1.266       .  A
C179        C731   1.473       .  S
O180       Cr196   2.005   1_655  S
O181       Cr196   1.993       .  S
O181        C182   1.259       .  A
C182        O183   1.260       .  A
C182        C641   1.465       .  S
O183       Cr197   1.996       .  S
O184       Cr197   1.966       .  S
O184        C185   1.262       .  A
C185        C681   1.481       .  S
O186       Cr195   1.996       .  S
O186        C194   1.259       .  A
O187       Cr195   2.009       .  S
O187        C188   1.268   1_455  A
C188        O189   1.260       .  A
C188        C881   1.481       .  S
O189       Cr196   1.973   1_655  S
O190       Cr196   2.018       .  S
O190        C191   1.269       .  A
C191        O192   1.260       .  A
C191        C598   1.466       .  S
O192       Cr197   1.966       .  S
O193       Cr197   1.991       .  S
O193        C194   1.258       .  A
C194        C591   1.467       .  S
Cr195       O198   1.771       .  S
Cr196       O198   1.774       .  S
Cr197       O198   1.758       .  S
O199       Cr217   2.026       .  S
O199        C207   1.271       .  A
O200       Cr217   1.968       .  S
O200        C201   1.259       .  A
C201        O202   1.267       .  A
C201        C558   1.473       .  S
O202       Cr218   2.016       .  S
O203       Cr218   2.003       .  S
O203        C204   1.262       .  A
C204        O205   1.261       .  A
C204        C581   1.473       .  S
O205       Cr219   1.999       .  S
O206       Cr219   1.966       .  S
O206        C207   1.261       .  A
C207        C568   1.477       .  S
O208       Cr217   1.994       .  S
O208        C216   1.260       .  A
O209       Cr217   2.019       .  S
O209        C210   1.270       .  A
C210        O211   1.262       .  A
C210        C548   1.487       .  S
O211       Cr218   1.976       .  S
O212       Cr218   2.027       .  S
O212        C213   1.270       .  A
C213        O214   1.258       .  A
C213        C601   1.463       .  S
O214       Cr219   1.960       .  S
O215       Cr219   1.988       .  S
O215        C216   1.260       .  A
C216        C631   1.465       .  S
Cr217       O220   1.770       .  S
Cr218       O220   1.772       .  S
Cr219       O220   1.753       .  S
O221       Cr239   1.995       .  S
O221        C229   1.259       .  A
O222       Cr239   2.015       .  S
O222        C223   1.269       .  A
C223        O224   1.260       .  A
C223        C518   1.475       .  S
O224       Cr240   1.964       .  S
O225       Cr240   2.037       .  S
O225        C226   1.272       .  A
C226        O227   1.259       .  A
C226        C671   1.478       .  S
O227       Cr241   1.963       .  S
O228       Cr241   1.990       .  S
O228        C229   1.260       .  A
C229        C648   1.468       .  S
O230       Cr239   2.033       .  S
O230        C238   1.273       .  A
O231       Cr239   1.973       .  S
O231        C232   1.261       .  A
C232        O233   1.267       .  A
C232        C528   1.478       .  S
O233       Cr240   2.011       .  S
O234       Cr240   1.988       .  S
O234        C235   1.256       .  A
C235        O236   1.260       .  A
C235        C538   1.462       .  S
O236       Cr241   1.995       .  S
O237       Cr241   1.960       .  S
O237        C238   1.260       .  A
C238        C571   1.476       .  S
Cr239       O242   1.774       .  S
Cr240       O242   1.770       .  S
Cr241       O242   1.755       .  S
O243       Cr261   2.031       .  S
O243        C251   1.273       .  A
O244       Cr261   1.968       .  S
O244        C245   1.260       .  A
C245        O246   1.268       .  A
C245        C751   1.476       .  S
O246       Cr262   2.020       .  S
O247       Cr262   2.000       .  S
O247        C248   1.261       .  A
C248        O249   1.260       .  A
C248        C578   1.470       .  S
O249       Cr263   1.995       .  S
O250       Cr263   1.968       .  S
O250        C251   1.261       .  A
C251        C588   1.481       .  S
O252       Cr261   1.999       .  S
O252        C260   1.262       .  A
O253       Cr261   2.021       .  S
O253        C254   1.269       .  A
C254        O255   1.260       .  A
C254        C721   1.482       .  S
O255       Cr262   1.974       .  S
O256       Cr262   2.030       .  S
O256        C257   1.271       .  A
C257        O258   1.258       .  A
C257        C541   1.470       .  S
O258       Cr263   1.956       .  S
O259       Cr263   1.992       .  S
O259        C260   1.260       .  A
C260        C661   1.468       .  S
Cr261       O264   1.770       .  S
Cr262       O264   1.774       .  S
Cr263       O264   1.755       .  S
O265       Cr283   2.033       .  S
O265        C273   1.273       .  A
O266       Cr283   1.967       .  S
O266        C267   1.260       .  A
C267        O268   1.267       .  A
C267        C521   1.472       .  S
O268       Cr284   2.007       .  S
O269       Cr284   1.998       .  S
O269        C270   1.259       .  A
C270        O271   1.260       .  A
C270        C488   1.469       .  S
O271       Cr285   1.995       .  S
O272       Cr285   1.965       .  S
O272        C273   1.261       .  A
C273        C478   1.481       .  S
O274       Cr283   1.992       .  S
O274        C282   1.258       .  A
O275       Cr283   2.012       .  S
O275        C276   1.268       .  A
C276        O277   1.262       .  A
C276        C551   1.487       .  S
O277       Cr284   1.980       .  S
O278       Cr284   2.029       .  S
O278        C279   1.271       .  A
C279        O280   1.259       .  A
C279        C508   1.471       .  S
O280       Cr285   1.958       .  S
O281       Cr285   1.991       .  S
O281        C282   1.259       .  A
C282        C498   1.464       .  S
Cr283       O286   1.773       .  S
Cr284       O286   1.773       .  S
Cr285       O286   1.757       .  S
O287       Cr305   1.996       .  S
O287        C295   1.260       .  A
O288       Cr305   2.008       .  S
O288        C289   1.267       .  A
C289        O290   1.258       .  A
C289        C781   1.474   1_655  S
O290       Cr306   1.963       .  S
O291       Cr306   2.028       .  S
O291        C292   1.270       .  A
C292        O293   1.261       .  A
C292        C468   1.479       .  S
O293       Cr307   1.971       .  S
O294       Cr307   1.997       .  S
O294        C295   1.261       .  A
C295        C458   1.470       .  S
O296       Cr305   2.024       .  S
O296        C304   1.270       .  A
O297       Cr305   1.976       .  S
O297        C298   1.261       .  A
C298        O299   1.266   1_655  A
C298        C838   1.477   1_655  S
O299       Cr306   2.007   1_455  S
O300       Cr306   1.982       .  S
O300        C301   1.256       .  A
C301        O302   1.262       .  A
C301        C511   1.460       .  S
O302       Cr307   1.997       .  S
O303       Cr307   1.970       .  S
O303        C304   1.262       .  A
C304        C448   1.477       .  S
Cr305       O308   1.774       .  S
Cr306       O308   1.773       .  S
Cr307       O308   1.757       .  S
O309       Cr327   2.027       .  S
O309        C317   1.272       .  A
O310       Cr327   1.979       .  S
O310        C311   1.261       .  A
C311        O312   1.265       .  A
C311        C611   1.476       .  S
O312       Cr328   2.007       .  S
O313       Cr328   2.004       .  S
O313        C314   1.262       .  A
C314        O315   1.259       .  A
C314        C471   1.468       .  S
O315       Cr329   1.986       .  S
O316       Cr329   1.968       .  S
O316        C317   1.261       .  A
C317        C501   1.477       .  S
O318       Cr327   2.005       .  S
O318        C326   1.263       .  A
O319       Cr327   2.022   1_554  S
O319        C320   1.270   1_554  A
C320        O321   1.260       .  A
C320        C531   1.482       .  S
O321       Cr328   1.970       .  S
O322       Cr328   2.018       .  S
O322        C323   1.269       .  A
C323        O324   1.261       .  A
C323        C438   1.468       .  S
O324       Cr329   1.973       .  S
O325       Cr329   1.983       .  S
O325        C326   1.257       .  A
C326        C428   1.468       .  S
Cr327       O330   1.772       .  S
Cr328       O330   1.771       .  S
Cr329       O330   1.754       .  S
O331       Cr349   2.025       .  S
O331        C339   1.271       .  A
O332       Cr349   1.965       .  S
O332        C333   1.259       .  A
C333        O334   1.268       .  A
C333        C561   1.474       .  S
O334       Cr350   2.019       .  S
O335       Cr350   1.995       .  S
O335        C336   1.260       .  A
C336        O337   1.260       .  A
C336        C408   1.468       .  S
O337       Cr351   1.995       .  S
O338       Cr351   1.975       .  S
O338        C339   1.263       .  A
C339        C431   1.483       .  S
O340       Cr349   1.995       .  S
O340        C348   1.260       .  A
O341       Cr349   2.014       .  S
O341        C342   1.269       .  A
C342        O343   1.259       .  A
C342        C621   1.484       .  S
O343       Cr350   1.973       .  S
O344       Cr350   2.029       .  S
O344        C345   1.271       .  A
C345        O346   1.259       .  A
C345        C421   1.473       .  S
O346       Cr351   1.960       .  S
O347       Cr351   1.991       .  S
O347        C348   1.260       .  A
C348        C481   1.466       .  S
Cr349       O352   1.769       .  S
Cr350       O352   1.777       .  S
Cr351       O352   1.757       .  S
O353       Cr371   1.992       .  S
O353        C361   1.260       .  A
O354       Cr371   2.020       .  S
O354        C355   1.271   1_545  A
C355        O356   1.259       .  A
C355        C711   1.478       .  S
O356       Cr372   1.958   1_565  S
O357       Cr372   2.038       .  S
O357        C358   1.272       .  A
C358        O359   1.259       .  A
C358        C491   1.477       .  S
O359       Cr373   1.962       .  S
O360       Cr373   1.989       .  S
O360        C361   1.260       .  A
C361        C451   1.463       .  S
O362       Cr371   2.028       .  S
O362        C370   1.271       .  A
O363       Cr371   1.969       .  S
O363        C364   1.259       .  A
C364        O365   1.267   1_545  A
C364        C788   1.470   1_545  S
O365       Cr372   2.016   1_565  S
O366       Cr372   1.990       .  S
O366        C367   1.258       .  A
C367        O368   1.261       .  A
C367        C418   1.462       .  S
O368       Cr373   1.994       .  S
O369       Cr373   1.965       .  S
O369        C370   1.260       .  A
C370        C398   1.477       .  S
Cr371       O374   1.768       .  S
Cr372       O374   1.770       .  S
Cr373       O374   1.750       .  S
O375       Cr393   2.028       .  S
O375        C383   1.271       .  A
O376       Cr393   1.974       .  S
O376        C377   1.259       .  A
C377        O378   1.267       .  A
C377        C831   1.479       .  S
O378       Cr394   2.022       .  S
O379       Cr394   1.997       .  S
O379        C380   1.261       .  A
C380        O381   1.262       .  A
C380        C411   1.469       .  S
O381       Cr395   2.000       .  S
O382       Cr395   1.963       .  S
O382        C383   1.260       .  A
C383        C401   1.476       .  S
O384       Cr393   1.997       .  S
O384        C392   1.262       .  A
O385       Cr393   2.027       .  S
O385        C386   1.271       .  A
C386        O387   1.260       .  A
C386        C701   1.477       .  S
O387       Cr394   1.968       .  S
O388       Cr394   2.029       .  S
O388        C389   1.270       .  A
C389        O390   1.258       .  A
C389        C441   1.469       .  S
O390       Cr395   1.964       .  S
O391       Cr395   1.994       .  S
O391        C392   1.261       .  A
C392        C461   1.470       .  S
Cr393       O396   1.769       .  S
Cr394       O396   1.770       .  S
Cr395       O396   1.753       .  S
C397        C398   1.404       .  A
C397        C402   1.394       .  A
C397        H403   1.084       .  S
C398        C399   1.406       .  A
C399        C400   1.402       .  A
C399        H404   1.083       .  S
C400        C401   1.405       .  A
C400        H405   1.083       .  S
C401        C402   1.404       .  A
C402        H406   1.084       .  S
C407        C408   1.401       .  A
C407        C412   1.395       .  A
C407        H413   1.083       .  S
C408        C409   1.404       .  A
C409        C410   1.404       .  A
C409        H414   1.083       .  S
C410        C411   1.404       .  A
C410        H415   1.083       .  S
C411        C412   1.403       .  A
C412        H416   1.084       .  S
C417        C418   1.399       .  A
C417        C422   1.391       .  A
C417        H423   1.084       .  S
C418        C419   1.404       .  A
C419        C420   1.403       .  A
C419        H424   1.083       .  S
C420        C421   1.405       .  A
C420        H425   1.083       .  S
C421        C422   1.404       .  A
C422        H426   1.082       .  S
C427        C428   1.403       .  A
C427        C432   1.396       .  A
C427        H433   1.084       .  S
C428        C429   1.403   1_556  A
C429        C430   1.403       .  A
C429        H434   1.083       .  S
C430        C431   1.408   1_554  A
C430        H435   1.083       .  S
C431        C432   1.405       .  A
C432        H436   1.083       .  S
C437        C438   1.403       .  A
C437        C442   1.398       .  A
C437        H443   1.083       .  S
C438        C439   1.403       .  A
C439        C440   1.396       .  A
C439        H444   1.083       .  S
C440        C441   1.404       .  A
C440        H445   1.083       .  S
C441        C442   1.403       .  A
C442        H446   1.084       .  S
C447        C448   1.404       .  A
C447        C452   1.394       .  A
C447        H453   1.084       .  S
C448        C449   1.407       .  A
C449        C450   1.402       .  A
C449        H454   1.083       .  S
C450        C451   1.403       .  A
C450        H455   1.083       .  S
C451        C452   1.401       .  A
C452        H456   1.083       .  S
C457        C458   1.404       .  A
C457        C462   1.402       .  A
C457        H463   1.084       .  S
C458        C459   1.403       .  A
C459        C460   1.400       .  A
C459        H464   1.084       .  S
C460        C461   1.403       .  A
C460        H465   1.084       .  S
C461        C462   1.404       .  A
C462        H466   1.083       .  S
C467        C468   1.403       .  A
C467        C472   1.393       .  A
C467        H473   1.083       .  S
C468        C469   1.408       .  A
C469        C470   1.405       .  A
C469        H474   1.083       .  S
C470        C471   1.404       .  A
C470        H475   1.083       .  S
C471        C472   1.402       .  A
C472        H476   1.084       .  S
C477        C478   1.406       .  A
C477        C482   1.394       .  A
C477        H483   1.084       .  S
C478        C479   1.408       .  A
C479        C480   1.404   1_556  A
C479        H484   1.083   1_556  S
C480        C481   1.403   1_554  A
C480        H485   1.083       .  S
C481        C482   1.400       .  A
C482        H486   1.082       .  S
C487        C488   1.405       .  A
C487        C492   1.405       .  A
C487        H493   1.083       .  S
C488        C489   1.400       .  A
C489        C490   1.394       .  A
C489        H494   1.084       .  S
C490        C491   1.405       .  A
C490        H495   1.083       .  S
C491        C492   1.406       .  A
C492        H496   1.083       .  S
C497        C498   1.400       .  A
C497        C502   1.395       .  A
C497        H503   1.083       .  S
C498        C499   1.402   1_556  A
C499        C500   1.401       .  A
C499        H504   1.083       .  S
C500        C501   1.406   1_554  A
C500        H505   1.083       .  S
C501        C502   1.405       .  A
C502        H506   1.083       .  S
C507        C508   1.404       .  A
C507        C512   1.391       .  A
C507        H513   1.083       .  S
C508        C509   1.405       .  A
C509        C510   1.401       .  A
C509        H514   1.083       .  S
C510        C511   1.402       .  A
C510        H515   1.083       .  S
C511        C512   1.399       .  A
C512        H516   1.084       .  S
C517        C518   1.405   1_556  A
C517        C522   1.400   1_565  A
C517        H523   1.083       .  S
C518        C519   1.405       .  A
C519        C520   1.394   1_565  A
C519        H524   1.083       .  S
C520        C521   1.402   1_554  A
C520        H525   1.083       .  S
C521        C522   1.405       .  A
C522        H526   1.083       .  S
C527        C528   1.403   1_556  A
C527        C532   1.396       .  A
C527        H533   1.083       .  S
C528        C529   1.406       .  A
C529        C530   1.404       .  A
C529        H534   1.083       .  S
C530        C531   1.406   1_554  A
C530        H535   1.083       .  S
C531        C532   1.406       .  A
C532        H536   1.083       .  S
C537        C538   1.404       .  A
C537        C542   1.403       .  A
C537        H543   1.083       .  S
C538        C539   1.398       .  A
C539        C540   1.391       .  A
C539        H544   1.084       .  S
C540        C541   1.404       .  A
C540        H545   1.082       .  S
C541        C542   1.404       .  A
C542        H546   1.083       .  S
C547        C548   1.407       .  A
C547        C552   1.400   1_455  A
C547        H553   1.083       .  S
C548        C549   1.406   1_554  A
C549        C550   1.401   1_455  A
C549        H554   1.083       .  S
C550        C551   1.408       .  A
C550        H555   1.083       .  S
C551        C552   1.406   1_556  A
C552        H556   1.083       .  S
C557        C558   1.403       .  A
C557        C562   1.393       .  A
C557        H563   1.083       .  S
C558        C559   1.405       .  A
C559        C560   1.403   1_554  A
C559        H564   1.083       .  S
C560        C561   1.405       .  A
C560        H565   1.083       .  S
C561        C562   1.403   1_556  A
C562        H566   1.084   1_554  S
C567        C568   1.403       .  A
C567        C572   1.393       .  A
C567        H573   1.084       .  S
C568        C569   1.407       .  A
C569        C570   1.402       .  A
C569        H574   1.083       .  S
C570        C571   1.405       .  A
C570        H575   1.083   1_554  S
C571        C572   1.405       .  A
C572        H576   1.084       .  S
C577        C578   1.405       .  A
C577        C582   1.404       .  A
C577        H583   1.083       .  S
C578        C579   1.402       .  A
C579        C580   1.398       .  A
C579        H584   1.084       .  S
C580        C581   1.404       .  A
C580        H585   1.084       .  S
C581        C582   1.404       .  A
C582        H586   1.083       .  S
C587        C588   1.406       .  A
C587        C592   1.396       .  A
C587        H593   1.083       .  S
C588        C589   1.408       .  A
C589        C590   1.403       .  A
C589        H594   1.083       .  S
C590        C591   1.402       .  A
C590        H595   1.083       .  S
C591        C592   1.401       .  A
C592        H596   1.083       .  S
C597        C598   1.404       .  A
C597        C602   1.396       .  A
C597        H603   1.083       .  S
C598        C599   1.402       .  A
C599        C600   1.395       .  A
C599        H604   1.083       .  S
C600        C601   1.404       .  A
C600        H605   1.084       .  S
C601        C602   1.402       .  A
C602        H606   1.083       .  S
C607        C608   1.404       .  A
C607        C612   1.400   1_454  A
C607        H613   1.083       .  S
C608        C609   1.404       .  A
C609        C610   1.397   1_455  A
C609        H614   1.084       .  S
C610        C611   1.404   1_554  A
C610        H615   1.083       .  S
C611        C612   1.405       .  A
C612        H616   1.083       .  S
C617        C618   1.408       .  A
C617        C622   1.396   1_565  A
C617        H623   1.083       .  S
C618        C619   1.404   1_554  A
C619        C620   1.401   1_565  A
C619        H624   1.083       .  S
C620        C621   1.409       .  A
C620        H625   1.083       .  S
C621        C622   1.404   1_556  A
C622        H626   1.083       .  S
C627        C628   1.406       .  A
C627        C632   1.393       .  A
C627        H633   1.084       .  S
C628        C629   1.407       .  A
C629        C630   1.404       .  A
C629        H634   1.083   1_554  S
C630        C631   1.403       .  A
C630        H635   1.083   1_554  S
C631        C632   1.400       .  A
C632        H636   1.084       .  S
C637        C638   1.403       .  A
C637        C642   1.402       .  A
C637        H643   1.083       .  S
C638        C639   1.403       .  A
C639        C640   1.396       .  A
C639        H644   1.084       .  S
C640        C641   1.401       .  A
C640        H645   1.083       .  S
C641        C642   1.404       .  A
C642        H646   1.083       .  S
C647        C648   1.402       .  A
C647        C652   1.394       .  A
C647        H653   1.084       .  S
C648        C649   1.404       .  A
C649        C650   1.405       .  A
C649        H654   1.083   1_554  S
C650        C651   1.404       .  A
C650        H655   1.083   1_554  S
C651        C652   1.402       .  A
C652        H656   1.084       .  S
C657        C658   1.408       .  A
C657        C662   1.404       .  A
C657        H663   1.083       .  S
C658        C659   1.405       .  A
C659        C660   1.395       .  A
C659        H664   1.083       .  S
C660        C661   1.401       .  A
C660        H665   1.082       .  S
C661        C662   1.402       .  A
C662        H666   1.083       .  S
C667        C668   1.404       .  A
C667        C672   1.405       .  A
C667        H673   1.083       .  S
C668        C669   1.401       .  A
C669        C670   1.393       .  A
C669        H674   1.084       .  S
C670        C671   1.404       .  A
C670        H675   1.083       .  S
C671        C672   1.406       .  A
C672        H676   1.083       .  S
C677        C678   1.401       .  A
C677        C682   1.394       .  A
C677        H683   1.084       .  S
C678        C679   1.402       .  A
C679        C680   1.403       .  A
C679        H684   1.083       .  S
C680        C681   1.407       .  A
C680        H685   1.083       .  S
C681        C682   1.406       .  A
C682        H686   1.083       .  S
C687        C688   1.403       .  A
C687        C692   1.398       .  A
C687        H693   1.083       .  S
C688        C689   1.405       .  A
C689        C690   1.396       .  A
C689        H694   1.083       .  S
C690        C691   1.401       .  A
C690        H695   1.084       .  S
C691        C692   1.404       .  A
C692        H696   1.084       .  S
C697        C698   1.408       .  A
C697        C702   1.404       .  A
C697        H703   1.083       .  S
C698        C699   1.405       .  A
C699        C700   1.396       .  A
C699        H704   1.083       .  S
C700        C701   1.404       .  A
C700        H705   1.084       .  S
C701        C702   1.404       .  A
C702        H706   1.083       .  S
C707        C708   1.408       .  A
C707        C712   1.399       .  A
C707        H713   1.083       .  S
C708        C709   1.403       .  A
C709        C710   1.393       .  A
C709        H714   1.083       .  S
C710        C711   1.406       .  A
C710        H715   1.083       .  S
C711        C712   1.404       .  A
C712        H716   1.083       .  S
C717        C718   1.406       .  A
C717        C722   1.402       .  A
C717        H723   1.083       .  S
C718        C719   1.404       .  A
C719        C720   1.399       .  A
C719        H724   1.083       .  S
C720        C721   1.407       .  A
C720        H725   1.083       .  S
C721        C722   1.405       .  A
C722        H726   1.083       .  S
C727        C728   1.404       .  A
C727        C732   1.401       .  A
C727        H733   1.083       .  S
C728        C729   1.404       .  A
C729        C730   1.393       .  A
C729        H734   1.084       .  S
C730        C731   1.402       .  A
C730        H735   1.083   1_655  S
C731        C732   1.406       .  A
C732        H736   1.083       .  S
C737        C738   1.402       .  A
C737        C742   1.393       .  A
C737        H743   1.084       .  S
C738        C739   1.404       .  A
C739        C740   1.403       .  A
C739        H744   1.083       .  S
C740        C741   1.403       .  A
C740        H745   1.083       .  S
C741        C742   1.399       .  A
C742        H746   1.082       .  S
C747        C748   1.406       .  A
C747        C752   1.405       .  A
C747        H753   1.083       .  S
C748        C749   1.403       .  A
C749        C750   1.393       .  A
C749        H754   1.084       .  S
C750        C751   1.403       .  A
C750        H755   1.084       .  S
C751        C752   1.406       .  A
C752        H756   1.083       .  S
C757        C758   1.407       .  A
C757        C762   1.399       .  A
C757        H763   1.083       .  S
C758        C759   1.406       .  A
C759        C760   1.401       .  A
C759        H764   1.083       .  S
C760        C761   1.408       .  A
C760        H765   1.083       .  S
C761        C762   1.405       .  A
C762        H766   1.083       .  S
C767        C768   1.405       .  A
C767        C772   1.404       .  A
C767        H773   1.083       .  S
C768        C769   1.402       .  A
C769        C770   1.398       .  A
C769        H774   1.084       .  S
C770        C771   1.403       .  A
C770        H775   1.084       .  S
C771        C772   1.404       .  A
C772        H776   1.083       .  S
C777        C778   1.407       .  A
C777        C782   1.395       .  A
C777        H783   1.083       .  S
C778        C779   1.403       .  A
C779        C780   1.395       .  A
C779        H784   1.083       .  S
C780        C781   1.406       .  A
C780        H785   1.083       .  S
C781        C782   1.403       .  A
C782        H786   1.083       .  S
C787        C788   1.402       .  A
C787        C792   1.393       .  A
C787        H793   1.084   1_565  S
C788        C789   1.404       .  A
C789        C790   1.402       .  A
C789        H794   1.083       .  S
C790        C791   1.407       .  A
C790        H795   1.083       .  S
C791        C792   1.404       .  A
C792        H796   1.083       .  S
C797        C798   1.402       .  A
C797        C802   1.402       .  A
C797        H803   1.083       .  S
C798        C799   1.401       .  A
C799        C800   1.394       .  A
C799        H804   1.084       .  S
C800        C801   1.405       .  A
C800        H805   1.082       .  S
C801        C802   1.407       .  A
C802        H806   1.083       .  S
C807        C808   1.404   1_545  A
C807        C812   1.403       .  A
C807        H813   1.083       .  S
C808        C809   1.400       .  A
C809        C810   1.393       .  A
C809        H814   1.084       .  S
C810        C811   1.403   1_565  A
C810        H815   1.084       .  S
C811        C812   1.405       .  A
C812        H816   1.083       .  S
C817        C818   1.402       .  A
C817        C822   1.397       .  A
C817        H823   1.084       .  S
C818        C819   1.404   1_455  A
C819        C820   1.397       .  A
C819        H824   1.083       .  S
C820        C821   1.402       .  A
C820        H825   1.084       .  S
C821        C822   1.405   1_655  A
C822        H826   1.083       .  S
C827        C828   1.408       .  A
C827        C832   1.405       .  A
C827        H833   1.083       .  S
C828        C829   1.405       .  A
C829        C830   1.397       .  A
C829        H834   1.084       .  S
C830        C831   1.404       .  A
C830        H835   1.083       .  S
C831        C832   1.405       .  A
C832        H836   1.083       .  S
C837        C838   1.402       .  A
C837        C842   1.396       .  A
C837        H843   1.083   1_455  S
C838        C839   1.406       .  A
C839        C840   1.402       .  A
C839        H844   1.083       .  S
C840        C841   1.404       .  A
C840        H845   1.083       .  S
C841        C842   1.406       .  A
C842        H846   1.083       .  S
C847        C848   1.403       .  A
C847        C852   1.401       .  A
C847        H853   1.083       .  S
C848        C849   1.404       .  A
C849        C850   1.403       .  A
C849        H854   1.083       .  S
C850        C851   1.404       .  A
C850        H855   1.083       .  S
C851        C852   1.404       .  A
C852        H856   1.084       .  S
C857        C858   1.403       .  A
C857        C862   1.391       .  A
C857        H863   1.084       .  S
C858        C859   1.406       .  A
C859        C860   1.402       .  A
C859        H864   1.083       .  S
C860        C861   1.406       .  A
C860        H865   1.083       .  S
C861        C862   1.404       .  A
C862        H866   1.084       .  S
C867        C868   1.405       .  A
C867        C872   1.406       .  A
C867        H873   1.083       .  S
C868        C869   1.404       .  A
C869        C870   1.394       .  A
C869        H874   1.084       .  S
C870        C871   1.400       .  A
C870        H875   1.082       .  S
C871        C872   1.405       .  A
C872        H876   1.083       .  S
C877        C878   1.405       .  A
C877        C882   1.400       .  A
C877        H883   1.083       .  S
C878        C879   1.407       .  A
C879        C880   1.396       .  A
C879        H884   1.083       .  S
C880        C881   1.403       .  A
C880        H885   1.083       .  S
C881        C882   1.408       .  A
C882        H886   1.083       .  S
C887        C888   1.404   1_565  A
C887        C892   1.397   1_565  A
C887        H893   1.083       .  S
C888        C889   1.406       .  A
C889        C890   1.403       .  A
C889        H894   1.083       .  S
C890        C891   1.405       .  A
C890        H895   1.083       .  S
C891        C892   1.404       .  A
C892        H896   1.084       .  S
C897        C898   1.406       .  A
C897        C902   1.400       .  A
C897        H903   1.083       .  S
C898        C899   1.404       .  A
C899        C900   1.392       .  A
C899        H904   1.084       .  S
C900        C901   1.405       .  A
C900        H905   1.084       .  S
C901        C902   1.405       .  A
C902        H906   1.083       .  S
C907        C908   1.406   1_455  A
C907        C912   1.397       .  A
C907        H913   1.083       .  S
C908        C909   1.402       .  A
C909        C910   1.397       .  A
C909        H914   1.084       .  S
C910        C911   1.405   1_655  A
C910        H915   1.083       .  S
C911        C912   1.402       .  A
C912        H916   1.084       .  S
C917        C918   1.400       .  A
C917        C922   1.393       .  A
C917        H923   1.084       .  S
C918        C919   1.405   1_545  A
C919        C920   1.404       .  A
C919        H924   1.083       .  S
C920        C921   1.405       .  A
C920        H925   1.083       .  S
C921        C922   1.404   1_565  A
C922        H926   1.083       .  S
C927        C928   1.405       .  A
C927        C932   1.396       .  A
C927        H933   1.082       .  S
C928        C929   1.408       .  A
C929        C930   1.404       .  A
C929        H934   1.083       .  S
C930        C931   1.403       .  A
C930        H935   1.083       .  S
C931        C932   1.402       .  A
C932        H936   1.084       .  S
