geometry optimzed in LAMMPS
_audit_creation_date              2020-12-01 
_audit_creation_method            'lammps2cif' 
_symmetry_space_group_name_H-M    'P1' 
_symmetry_Int_Tables_number       1 
_symmetry_cell_setting            triclinic 
loop_ 
_symmetry_equiv_pos_as_xyz 
  x,y,z 
_cell_length_a                    34.32271151 
_cell_length_b                    34.01611029007675 
_cell_length_c                    26.755793956491026 
_cell_angle_alpha                 89.68809936400328 
_cell_angle_beta                  89.63865051693936 
_cell_angle_gamma                 88.2672653292871 
loop_ 
_atom_site_label 
_atom_site_type_symbol 
_atom_site_fract_x 
_atom_site_fract_y 
_atom_site_fract_z 
_atom_site_charge 
O1          O  0.92893094  0.95276154  0.21046196    -0.80400
O2          O  0.06002848  0.07588676  0.16522710    -0.65000
O3          O  0.00305686  0.98172105  0.18486449    -1.11700
C4          C  0.01954897  0.01425267  0.35766599     1.06500
O5          O  0.10282178  0.05535466  0.22172030    -0.78300
O6          O  0.09571718  0.99456780  0.28648397    -0.65800
Ni7        Ni  0.95342934  0.97692576  0.15344254     1.34900
C8          C  0.08439052  0.96016255  0.27737010     0.85300
O9          O  0.03105085  0.02285084  0.10160806    -0.78800
O10         O  0.97173471  0.99846309  0.09099850    -0.89100
C11         C  0.09238455  0.07921859  0.18733055     0.84800
O12         O  0.93306974  0.02659372  0.17530618    -0.67300
O13         O  0.04527991  0.03834627  0.34339280    -0.86600
C14         C  0.94837668  0.06004958  0.17422048     0.85700
C15         C  0.00322704  0.01224858  0.07370781     1.07200
H16         H  0.00842631  0.05451366  0.25251346     0.39000
O17         O  0.02736871  0.03394562  0.24426702    -1.09200
O18         O  0.05048315  0.95337510  0.26061681    -0.65900
Ni19       Ni  0.00268785  0.98563356  0.25640020     1.26300
O20         O  0.98474509  0.06449198  0.16773578    -0.66100
O21         O  0.00201462  0.99166404  0.32782093    -0.78400
C22         C  0.94161709  0.93318781  0.24789897     0.85100
O23         O  0.97532702  0.93820982  0.26552013    -0.65600
Ni24       Ni  0.07255682  0.04613294  0.28113666     1.27400
Ni25       Ni  0.03016861  0.02941926  0.17293719     1.26100
H26         H  0.01962449  0.95969628  0.17465013     0.39600
O27         O  0.91375215  0.95735235  0.71363752    -0.80400
O28         O  0.04260664  0.07704937  0.66216156    -0.65000
O29         O  0.98887463  0.98197467  0.68683060    -1.11700
C30         C  0.01588369  0.01450483  0.85625682     1.06500
O31         O  0.08971291  0.05152005  0.70857371    -0.78300
O32         O  0.08606169  0.98894507  0.76964533    -0.65800
Ni33       Ni  0.94180013  0.97035464  0.65299159     1.34900
C34         C  0.06966332  0.95611241  0.76836897     0.85300
O35         O  0.01273310  0.02377005  0.60097185    -0.78800
O36         O  0.96525405  0.98086940  0.58869929    -0.89100
C37         C  0.07698581  0.07815986  0.67911586     0.84800
O38         O  0.91847516  0.02195479  0.65440517    -0.67300
O39         O  0.04500578  0.03239674  0.83806955    -0.86600
C40         C  0.93127145  0.05615309  0.66126639     0.85700
C41         C  0.99188149  0.00316117  0.57255722     1.07200
H42         H  0.99963813  0.05683966  0.75316644     0.39000
O43         O  0.01591204  0.03459105  0.74314458    -1.09200
O44         O  0.03318983  0.95297218  0.76302726    -0.65900
Ni45       Ni  0.98863439  0.98835842  0.75829168     1.26300
O46         O  0.96699805  0.06265414  0.67021431    -0.66100
O47         O  0.99068158  0.99708774  0.82967186    -0.78400
C48         C  0.92577926  0.93743313  0.75123731     0.85100
O49         O  0.95901919  0.94256594  0.77014837    -0.65600
Ni50       Ni  0.06574326  0.04162152  0.77225870     1.27400
Ni51       Ni  0.01430338  0.02994297  0.67209026     1.26100
H52         H  0.00712045  0.96083439  0.67836010     0.39600
O53         O  0.22320721  0.34975189  0.12373756    -0.80400
O54         O  0.32959174  0.20571029  0.06884121    -0.65000
O55         O  0.24056739  0.27293546  0.09337503    -1.11700
C56         C  0.25993890  0.24542980  0.26533981     1.06500
O57         O  0.32123399  0.16479307  0.13345511    -0.78300
O58         O  0.24754784  0.17316598  0.16884683    -0.65800
Ni59       Ni  0.23488658  0.32322039  0.06186094     1.34900
C60         C  0.21442663  0.19066187  0.16600240     0.85300
O61         O  0.27735799  0.24252135  0.00860502    -0.78800
O62         O  0.24491672  0.30057583  0.99737377    -0.89100
C63         C  0.33698838  0.17359563  0.09192981     0.84800
O64         O  0.28745564  0.33899619  0.06728442    -0.67300
O65         O  0.27514145  0.21302270  0.25021638    -0.86600
C66         C  0.31984792  0.32029535  0.07082417     0.85700
C67         C  0.26077389  0.26881627  0.98077341     1.07200
H68         H  0.31302744  0.25698892  0.16117115     0.39000
O69         O  0.29110749  0.24133325  0.15232606    -1.09200
O70         O  0.21001117  0.22805411  0.16720399    -0.65900
Ni71       Ni  0.24426562  0.27240727  0.16438258     1.26300
O72         O  0.32270793  0.28295457  0.07464959    -0.66100
O73         O  0.24924476  0.27276438  0.23553742    -0.78400
C74         C  0.19681735  0.33916288  0.15396776     0.85100
O75         O  0.19814435  0.30475224  0.17224397    -0.65600
Ni76       Ni  0.29664839  0.19231882  0.18834041     1.27400
Ni77       Ni  0.28570473  0.24088423  0.08004570     1.26100
H78         H  0.21819418  0.25825050  0.08366628     0.39600
O79         O  0.20801167  0.34852135  0.62420653    -0.80400
O80         O  0.31488434  0.20595928  0.57239177    -0.65000
O81         O  0.22464131  0.27164523  0.59432742    -1.11700
C82         C  0.25084423  0.24455908  0.76610662     1.06500
O83         O  0.29704631  0.16151194  0.62793424    -0.78300
O84         O  0.23007608  0.17279116  0.67754365    -0.65800
Ni85       Ni  0.21959764  0.32173691  0.56222590     1.34900
C86         C  0.19755302  0.19044272  0.67003820     0.85300
O87         O  0.26374049  0.24156639  0.51017968    -0.78800
O88         O  0.23050294  0.29887095  0.49753123    -0.89100
C89         C  0.31876551  0.17211199  0.59202140     0.84800
O90         O  0.27208657  0.33737070  0.56816867    -0.67300
O91         O  0.26836330  0.21338561  0.75053485    -0.86600
C92         C  0.30401162  0.31831111  0.57416021     0.85700
C93         C  0.24794833  0.26763138  0.48149964     1.07200
H94         H  0.29644246  0.25495137  0.66264490     0.39000
O95         O  0.27453160  0.23946988  0.65327137    -1.09200
O96         O  0.19337532  0.22768747  0.66727886    -0.65900
Ni97       Ni  0.22830672  0.27102980  0.66573538     1.26300
O98         O  0.30618479  0.28126138  0.57901812    -0.66100
O99         O  0.23401543  0.26973930  0.73727905    -0.78400
C100        C  0.18139690  0.33898557  0.65475974     0.85100
O101        O  0.18261268  0.30469992  0.67389518    -0.65600
Ni102      Ni  0.28155096  0.19010896  0.68711729     1.27400
Ni103      Ni  0.26998876  0.23958151  0.58175709     1.26100
H104        H  0.20235071  0.25696673  0.58431137     0.39600
O105        O  0.32233961  0.66078376  0.36103208    -0.80400
O106        O  0.20039980  0.80239232  0.31746756    -0.65000
O107        O  0.29360462  0.73848747  0.33874701    -1.11700
C108        C  0.26122510  0.76500488  0.50965877     1.06500
O109        O  0.22482943  0.84705142  0.36587603    -0.78300
O110        O  0.28789728  0.83597076  0.42483791    -0.65800
Ni111      Ni  0.30063025  0.68940683  0.30404450     1.34900
C112        C  0.32065154  0.81775202  0.42253786     0.85300
O113        O  0.25236359  0.76968484  0.25501082    -0.78800
O114        O  0.28248429  0.71160184  0.24113899    -0.89100
C115        C  0.19906412  0.83708227  0.33485092     0.84800
O116        O  0.25009773  0.67019607  0.31913032    -0.67300
O117        O  0.24444052  0.79620108  0.49244388    -0.86600
C118        C  0.21674650  0.68743376  0.32216298     0.85700
C119        C  0.26560356  0.74325822  0.22562747     1.07200
H120        H  0.22004580  0.75442026  0.40672763     0.39000
O121        O  0.24226761  0.76952330  0.39696052    -1.09200
O122        O  0.32407847  0.78071174  0.41600784    -0.65900
Ni123      Ni  0.28792055  0.73803445  0.41071373     1.26300
O124        O  0.21230563  0.72487960  0.32305591    -0.66100
O125        O  0.27920186  0.73946692  0.48215347    -0.78400
C126        C  0.33947687  0.67065147  0.40101297     0.85100
O127        O  0.33268218  0.70365720  0.42200714    -0.65600
Ni128      Ni  0.23539334  0.81957809  0.42795126     1.27400
Ni129      Ni  0.24656374  0.76939381  0.32603232     1.26100
H130        H  0.31542703  0.75437018  0.32967677     0.39600
O131        O  0.29350604  0.66035853  0.86872781    -0.80400
O132        O  0.18142577  0.79918780  0.81563145    -0.65000
O133        O  0.27335451  0.73729637  0.83882890    -1.11700
C134        C  0.24921274  0.76577960  0.00977274     1.06500
O135        O  0.19570455  0.84536420  0.87065102    -0.78300
O136        O  0.26631558  0.83697815  0.91589738    -0.65800
Ni137      Ni  0.28073324  0.68734743  0.80727455     1.34900
C138        C  0.29926300  0.81911651  0.91222688     0.85300
O139        O  0.23424307  0.76576195  0.75442295    -0.78800
O140        O  0.26996128  0.71016963  0.74275218    -0.89100
C141        C  0.17623875  0.83319544  0.83372216     0.84800
O142        O  0.22890680  0.66952111  0.81432351    -0.67300
O143        O  0.23218750  0.79722962  0.99375373    -0.86600
C144        C  0.19620563  0.68677053  0.82223653     0.85700
C145        C  0.25271711  0.74129737  0.72618857     1.07200
H146        H  0.20039368  0.75300882  0.90785853     0.39000
O147        O  0.22214444  0.76855074  0.89748305    -1.09200
O148        O  0.30292609  0.78183928  0.91136174    -0.65900
Ni149      Ni  0.26877854  0.73806237  0.90982653     1.26300
O150        O  0.19243316  0.72390369  0.82567846    -0.66100
O151        O  0.26300992  0.73914287  0.98091731    -0.78400
C152        C  0.31761581  0.67176457  0.90096925     0.85100
O153        O  0.31478709  0.70622210  0.91843617    -0.65600
Ni154      Ni  0.21539507  0.81847220  0.92985215     1.27400
Ni155      Ni  0.22706229  0.76745535  0.82592224     1.26100
H156        H  0.29510516  0.75290080  0.82860828     0.39600
O157        O  0.59329829  0.03125317  0.97895579    -0.80400
O158        O  0.46411603  0.91920854  0.92384260    -0.65000
O159        O  0.51854430  0.01313171  0.94884309    -1.11700
C160        C  0.48735617  0.98084292  0.11754636     1.06500
O161        O  0.41646610  0.94821546  0.96738449    -0.78300
O162        O  0.41922611  0.00859417  0.03266124    -0.65800
Ni163      Ni  0.56602154  0.02468310  0.91701707     1.34900
C164        C  0.43602099  0.04126820  0.03091369     0.85300
O165        O  0.50225092  0.96879362  0.86195720    -0.78800
O166        O  0.54215655  0.01945402  0.85319318    -0.89100
C167        C  0.42844996  0.92140317  0.93760576     0.84800
O168        O  0.58736426  0.97231801  0.91245826    -0.67300
O169        O  0.45951230  0.96180921  0.09834566    -0.86600
C170        C  0.57675827  0.93856594  0.92662147     0.85700
C171        C  0.52181063  0.99239722  0.83481383     1.07200
H172        H  0.50448993  0.93989727  0.01665189     0.39000
O173        O  0.48889737  0.96213650  0.00483540    -1.09200
O174        O  0.47245606  0.04407512  0.02354786    -0.65900
Ni175      Ni  0.51650913  0.00764601  0.02021116     1.26300
O176        O  0.54149800  0.93214844  0.93916151    -0.66100
O177        O  0.51232527  0.99957654  0.09153812    -0.78400
C178        C  0.58203218  0.05327577  0.01476115     0.85100
O179        O  0.54751693  0.05228442  0.03175801    -0.65600
Ni180      Ni  0.43888652  0.95535949  0.03225037     1.27400
Ni181      Ni  0.49427041  0.96511844  0.93374630     1.26100
H182        H  0.50041759  0.03406986  0.93924538     0.39600
O183        O  0.59832822  0.94840238  0.46675414    -0.80400
O184        O  0.46376165  0.05161899  0.53145231    -0.65000
O185        O  0.52624808  0.96028500  0.50524084    -1.11700
C186        C  0.48942642  0.98556589  0.33608031     1.06500
O187        O  0.41686438  0.03024069  0.48354221    -0.78300
O188        O  0.42449634  0.96515513  0.42760929    -0.65800
Ni189      Ni  0.57694611  0.95466646  0.53213433     1.34900
C190        C  0.44151981  0.93186096  0.43381450     0.85300
O191        O  0.50242617  0.00000636  0.59134031    -0.78800
O192        O  0.55678228  0.96120817  0.59867580    -0.89100
C193        C  0.42909740  0.05422171  0.51563795     0.84800
O194        O  0.59296924  0.00775299  0.53142394    -0.67300
O195        O  0.46205763  0.00685898  0.35525713    -0.86600
C196        C  0.57469817  0.04038132  0.52643201     0.85700
C197        C  0.52807719  0.98109058  0.61738359     1.07200
H198        H  0.50714167  0.03167232  0.43697245     0.39000
O199        O  0.49198259  0.00991834  0.44858146    -1.09200
O200        O  0.47839866  0.92721332  0.43737098    -0.65900
Ni201      Ni  0.52153167  0.96272513  0.43373307     1.26300
O202        O  0.53821329  0.04306424  0.51875208    -0.66100
O203        O  0.51503569  0.96681604  0.36221980    -0.78400
C204        C  0.58934320  0.91848505  0.44197717     0.85100
O205        O  0.55518656  0.91702138  0.42411044    -0.65600
Ni206      Ni  0.44161443  0.01769747  0.42062681     1.27400
Ni207      Ni  0.49632333  0.00629035  0.52002998     1.26100
H208        H  0.51191229  0.93816992  0.51752842     0.39600
O209        O  0.81798962  0.83090284  0.37372787    -0.80400
O210        O  0.70473293  0.69488546  0.42330037    -0.65000
O211        O  0.79576735  0.75418481  0.40006991    -1.11700
C212        C  0.76511997  0.72997158  0.22937311     1.06500
O213        O  0.72616827  0.64915255  0.37069453    -0.78300
O214        O  0.78991046  0.65690782  0.31516584    -0.65800
Ni215      Ni  0.80334782  0.80284536  0.43368818     1.34900
C216        C  0.82231953  0.67310513  0.32092621     0.85300
O217        O  0.75548503  0.72665201  0.48498017    -0.78800
O218        O  0.79048817  0.78029965  0.49782231    -0.89100
C219        C  0.70293381  0.66072282  0.40493316     0.84800
O220        O  0.75156145  0.82368585  0.42706524    -0.67300
O221        O  0.74766111  0.70001732  0.24597967    -0.86600
C222        C  0.71888942  0.80767177  0.42235996     0.85700
C223        C  0.77128580  0.75120713  0.51380645     1.07200
H224        H  0.72253357  0.74236788  0.33341246     0.39000
O225        O  0.74472319  0.72578979  0.34255783    -1.09200
O226        O  0.82585303  0.70998262  0.32489773    -0.65900
Ni227      Ni  0.79023543  0.75464939  0.32862755     1.26300
O228        O  0.71485928  0.77094437  0.41682266    -0.66100
O229        O  0.78270437  0.75404680  0.25728725    -0.78400
C230        C  0.83810114  0.81940479  0.33615627     0.85100
O231        O  0.83505776  0.78533891  0.31802723    -0.65600
Ni232      Ni  0.73772983  0.67676760  0.30996580     1.27400
Ni233      Ni  0.74973276  0.72565442  0.41365494     1.26100
H234        H  0.81774188  0.73720518  0.40896194     0.39600
O235        O  0.80010928  0.83436733  0.87606164    -0.80400
O236        O  0.68221946  0.70157347  0.92263709    -0.65000
O237        O  0.77693967  0.75773497  0.90157216    -1.11700
C238        C  0.75029391  0.73520269  0.72985642     1.06500
O239        O  0.70719732  0.65691959  0.87195331    -0.78300
O240        O  0.77051479  0.66195311  0.81363020    -0.65800
Ni241      Ni  0.78817159  0.80471401  0.93563168     1.34900
C242        C  0.80338057  0.67714085  0.81970648     0.85300
O243        O  0.73509863  0.73210568  0.98630700    -0.78800
O244        O  0.77838890  0.77968944  0.99831218    -0.89100
C245        C  0.68080420  0.66750911  0.90305960     0.84800
O246        O  0.73676883  0.82686250  0.93468304    -0.67300
O247        O  0.73017182  0.70642819  0.74534443    -0.86600
C248        C  0.70258153  0.81527298  0.92700952     0.85700
C249        C  0.75644288  0.75281210  0.01439378     1.07200
H250        H  0.70451227  0.74942294  0.83292992     0.39000
O251        O  0.72599508  0.73213249  0.84278914    -1.09200
O252        O  0.80764152  0.71361969  0.82690630    -0.65900
Ni253      Ni  0.77293382  0.75922892  0.83038602     1.26300
O254        O  0.69620985  0.77927113  0.91739642    -0.66100
O255        O  0.76720169  0.75880007  0.75907239    -0.78400
C256        C  0.82121442  0.82359663  0.83909435     0.85100
O257        O  0.81874990  0.78928402  0.82125507    -0.65600
Ni258      Ni  0.71874471  0.68346449  0.80991450     1.27400
Ni259      Ni  0.72915041  0.73162157  0.91447976     1.26100
H260        H  0.79773079  0.73935284  0.91050845     0.39600
O261        O  0.72472284  0.14472156  0.12114096    -0.80400
O262        O  0.82889218  0.28716631  0.17151162    -0.65000
O263        O  0.74159281  0.22288650  0.14644245    -1.11700
C264        C  0.76598200  0.24726280  0.97611086     1.06500
O265        O  0.81879328  0.32936842  0.10862619    -0.78300
O266        O  0.74497338  0.31998683  0.07444900    -0.65800
Ni267      Ni  0.73660168  0.17347675  0.18043468     1.34900
C268        C  0.71330994  0.30187989  0.07098608     0.85300
O269        O  0.77628926  0.25405047  0.23141785    -0.78800
O270        O  0.74633933  0.19691049  0.24369308    -0.89100
C271        C  0.83533808  0.31951460  0.14946043     0.84800
O272        O  0.78969397  0.15593899  0.17444715    -0.67300
O273        O  0.77557085  0.28077420  0.99230439    -0.86600
C274        C  0.82150850  0.17396436  0.17186365     0.85700
C275        C  0.76097829  0.22829594  0.25976721     1.07200
H276        H  0.81636111  0.23754794  0.08088321     0.39000
O277        O  0.79314889  0.25265819  0.08895488    -1.09200
O278        O  0.71194285  0.26464715  0.06723838    -0.65900
Ni279      Ni  0.74906526  0.22103832  0.07580062     1.26300
O280        O  0.82318088  0.21107345  0.16716035    -0.66100
O281        O  0.75856349  0.21886790  0.00534935    -0.78400
C282        C  0.70129387  0.15585341  0.08711288     0.85100
O283        O  0.70510330  0.18899691  0.06622474    -0.65600
Ni284      Ni  0.79564690  0.30183747  0.05380044     1.27400
Ni285      Ni  0.78561767  0.25411359  0.16030855     1.26100
H286        H  0.71833951  0.23849226  0.15400327     0.39600
O287        O  0.69506441  0.14931123  0.62713095    -0.80400
O288        O  0.81499841  0.28545697  0.67007719    -0.65000
O289        O  0.72509748  0.22408633  0.64687025    -1.11700
C290        C  0.75876967  0.24612708  0.47585471     1.06500
O291        O  0.79750735  0.33033848  0.61380801    -0.78300
O292        O  0.73256626  0.32103053  0.55947870    -0.65800
Ni293      Ni  0.72167676  0.17463307  0.68133484     1.34900
C294        C  0.70001480  0.30464871  0.56404827     0.85300
O295        O  0.76076519  0.25589409  0.73032609    -0.78800
O296        O  0.74481330  0.19358887  0.74241397    -0.89100
C297        C  0.81788880  0.31956666  0.65125283     0.84800
O298        O  0.77093970  0.15535777  0.65689266    -0.67300
O299        O  0.77495346  0.27692407  0.49146088    -0.86600
C300        C  0.80352879  0.17187508  0.66054762     0.85700
C301        C  0.75396467  0.22709989  0.75915424     1.07200
H302        H  0.80034985  0.23553858  0.58178870     0.39000
O303        O  0.77778731  0.25216133  0.58939510    -1.09200
O304        O  0.69664405  0.26767391  0.56918221    -0.65900
Ni305      Ni  0.73250929  0.22279635  0.57546098     1.26300
O306        O  0.80627498  0.20877407  0.66786627    -0.66100
O307        O  0.74178008  0.22198867  0.50465582    -0.78400
C308        C  0.67949604  0.16024348  0.58603526     0.85100
O309        O  0.68812474  0.19177880  0.56369698    -0.65600
Ni310      Ni  0.78498926  0.30096129  0.55468157     1.27400
Ni311      Ni  0.77039725  0.25397078  0.66003684     1.26100
H312        H  0.70213370  0.23987693  0.65524863     0.39600
O313        O  0.41965839  0.53199898  0.00358636    -0.80400
O314        O  0.55344134  0.41795942  0.06647064    -0.65000
O315        O  0.49398413  0.51266429  0.03930661    -1.11700
C316        C  0.52693979  0.48078344  0.87046219     1.06500
O317        O  0.59825578  0.44474001  0.01975963    -0.78300
O318        O  0.59448903  0.50493784  0.95307469    -0.65800
Ni319      Ni  0.44388038  0.52251925  0.06729487     1.34900
C320        C  0.57811713  0.53871632  0.95744597     0.85300
O321        O  0.51514838  0.47127044  0.12701048    -0.78800
O322        O  0.46517003  0.51519389  0.13260789    -0.89100
C323        C  0.58747247  0.41646581  0.04727646     0.84800
O324        O  0.42505886  0.47003075  0.06761228    -0.67300
O325        O  0.55495048  0.45943023  0.88840084    -0.86600
C326        C  0.44069245  0.43599638  0.06179728     0.85700
C327        C  0.49185229  0.49363207  0.15265889     1.07200
H328        H  0.51040448  0.43976346  0.97261392     0.39000
O329        O  0.52604038  0.46114614  0.98371685    -1.09200
O330        O  0.54200407  0.54347898  0.96769747    -0.65900
Ni331      Ni  0.49821246  0.50846493  0.96822557     1.26300
O332        O  0.47713277  0.43047497  0.05392496    -0.66100
O333        O  0.50342615  0.50171341  0.89722756    -0.78400
C334        C  0.43202587  0.55656463  0.97172715     0.85100
O335        O  0.46695950  0.55460703  0.95630482    -0.65600
Ni336      Ni  0.57595644  0.45242787  0.95480793     1.27400
Ni337      Ni  0.52153611  0.46479704  0.05535242     1.26100
H338        H  0.50990503  0.53394365  0.05007371     0.39600
O339        O  0.42223760  0.44466659  0.51683451    -0.80400
O340        O  0.55771233  0.54907441  0.46115470    -0.65000
O341        O  0.49650279  0.45937568  0.48237261    -1.11700
C342        C  0.52471096  0.48476633  0.65375883     1.06500
O343        O  0.60282124  0.52276758  0.51047538    -0.78300
O344        O  0.59541317  0.46034299  0.57255047    -0.65800
Ni345      Ni  0.44655947  0.45512634  0.45350043     1.34900
C346        C  0.58020248  0.42780901  0.56259374     0.85300
O347        O  0.52198298  0.50020627  0.39784473    -0.78800
O348        O  0.46793550  0.46480865  0.38831966    -0.89100
C349        C  0.59218267  0.54838806  0.47812752     0.84800
O350        O  0.42797604  0.50870561  0.45717941    -0.67300
O351        O  0.55237640  0.50566504  0.63725023    -0.86600
C352        C  0.44494702  0.54121294  0.46071657     0.85700
C353        C  0.49646717  0.48395882  0.37070747     1.07200
H354        H  0.51059141  0.52939267  0.55200583     0.39000
O355        O  0.52712854  0.50753373  0.54118790    -1.09200
O356        O  0.54431558  0.42479885  0.55183308    -0.65900
Ni357      Ni  0.49947837  0.46094288  0.55374132     1.26300
O358        O  0.48160749  0.54302456  0.46789862    -0.66100
O359        O  0.50292917  0.46471960  0.62556179    -0.78400
C360        C  0.43383902  0.41746529  0.54634893     0.85100
O361        O  0.46864088  0.41571291  0.56183182    -0.65600
Ni362      Ni  0.57603032  0.51366122  0.57283721     1.27400
Ni363      Ni  0.52531913  0.50502420  0.46959018     1.26100
H364        H  0.51197395  0.43707710  0.47053296     0.39600
O365        O  0.10216757  0.55474408  0.26014875    -0.80400
O366        O  0.97419540  0.43802336  0.21673758    -0.65000
O367        O  0.02592954  0.53401357  0.23924354    -1.11700
C368        C  0.00472405  0.50594048  0.40959836     1.06500
O369        O  0.92829215  0.45064010  0.27358026    -0.78300
O370        O  0.93243604  0.52220908  0.31631508    -0.65800
Ni371      Ni  0.07115358  0.54681930  0.20151808     1.34900
C372        C  0.94702601  0.55602246  0.31821142     0.85300
O373        O  0.99917919  0.49456320  0.15534059    -0.78800
O374        O  0.04376669  0.54002721  0.13980841    -0.89100
C375        C  0.94102844  0.43166332  0.23576291     0.84800
O376        O  0.09412472  0.49550049  0.19490343    -0.67300
O377        O  0.97450991  0.48956818  0.39327655    -0.86600
C378        C  0.08222302  0.46126870  0.20391822     0.85700
C379        C  0.01729086  0.51713415  0.12536060     1.07200
H380        H  0.02016986  0.45789863  0.30602140     0.39000
O381        O  0.00285044  0.47982512  0.29758106    -1.09200
O382        O  0.98359914  0.56150657  0.31858178    -0.65900
Ni383      Ni  0.02966834  0.52763265  0.31019733     1.26300
O384        O  0.04816795  0.45437112  0.21998196    -0.66100
O385        O  0.03128548  0.51963510  0.38137248    -0.78400
C386        C  0.09242557  0.57751143  0.29582568     0.85100
O387        O  0.05980720  0.57416247  0.31816229    -0.65600
Ni388      Ni  0.95440605  0.47154577  0.33101377     1.27400
Ni389      Ni  0.00089924  0.48603220  0.22647251     1.26100
H390        H  0.00700404  0.55482915  0.23226957     0.39600
O391        O  0.08315872  0.55515633  0.76614091    -0.80400
O392        O  0.95471682  0.44074529  0.71604281    -0.65000
O393        O  0.00764455  0.53591993  0.73907068    -1.11700
C394        C  0.98686556  0.50916998  0.91024721     1.06500
O395        O  0.90999617  0.45156192  0.77567243    -0.78300
O396        O  0.91205724  0.52353099  0.81718878    -0.65800
Ni397      Ni  0.05488300  0.54753697  0.70538541     1.34900
C398        C  0.92627216  0.55749004  0.81610286     0.85300
O399        O  0.98388812  0.49592235  0.65407227    -0.78800
O400        O  0.03033740  0.54073586  0.64226380    -0.89100
C401        C  0.92196959  0.43387192  0.73636881     0.84800
O402        O  0.07738841  0.49590046  0.70062412    -0.67300
O403        O  0.95605854  0.49284447  0.89523585    -0.86600
C404        C  0.06470120  0.46155508  0.70646772     0.85700
C405        C  0.00466610  0.51779077  0.62587463     1.07200
H406        H  0.00139252  0.46070968  0.80638601     0.39000
O407        O  0.98369723  0.48222613  0.79755680    -1.09200
O408        O  0.96277390  0.56342648  0.81660925    -0.65900
Ni409      Ni  0.00967109  0.53036818  0.80985276     1.26300
O410        O  0.02986930  0.45495295  0.72029060    -0.66100
O411        O  0.01204618  0.52288087  0.88042858    -0.78400
C412        C  0.07192500  0.57922866  0.79960807     0.85100
O413        O  0.03794762  0.57754247  0.81806128    -0.65600
Ni414      Ni  0.93579768  0.47369291  0.83266652     1.27400
Ni415      Ni  0.98283097  0.48792630  0.72584276     1.26100
H416        H  0.98929542  0.55703157  0.73081932     0.39600
C417        C  0.00142274  0.51508549  0.57041871    -0.04800
C418        C  0.00339550  0.54942341  0.54023413    -0.01900
C419        C  0.00659937  0.54643283  0.48769630     0.03100
C420        C  0.00751753  0.50919760  0.46473001    -0.04800
C421        C  0.00546139  0.47495307  0.49464094    -0.01900
C422        C  0.00240368  0.47779324  0.54712277     0.03100
C423        C  0.00127917  0.58805362  0.56304731     0.37700
C424        C  0.00766021  0.43652253  0.47127646     0.37700
C425        C  0.00235492  0.44206053  0.57706475     0.36100
C426        C  0.00776610  0.58176602  0.45711938     0.36100
N427        N  0.00243602  0.41356424  0.60090972    -0.38700
N428        N  0.00875294  0.60990172  0.43267667    -0.38700
N429        N  0.00954276  0.40594630  0.45250939    -0.38100
N430        N  0.99963293  0.61888170  0.58117443    -0.38100
C431        C  0.00800293  0.51586464  0.07042864    -0.04800
C432        C  0.99519397  0.48062690  0.04838348    -0.01900
C433        C  0.98739625  0.47898085  0.99664905     0.03100
C434        C  0.99385562  0.51180298  0.96531380    -0.04800
C435        C  0.00780565  0.54661524  0.98674856    -0.01900
C436        C  0.01391672  0.54898711  0.03890353     0.03100
C437        C  0.99225104  0.44483756  0.07788277     0.37700
C438        C  0.01541818  0.58056929  0.95538840     0.37700
C439        C  0.02584625  0.58607942  0.05967403     0.36100
C440        C  0.97451826  0.44243180  0.97536390     0.36100
N441        N  0.03547614  0.61569045  0.07595153    -0.38700
N442        N  0.96416837  0.41329645  0.95853180    -0.38700
N443        N  0.02161045  0.60772705  0.93065175    -0.38100
N444        N  0.99015445  0.41614533  0.10107552    -0.38100
C445        C  0.52189326  0.48189625  0.81519623    -0.04800
C446        C  0.51884946  0.44667073  0.78786161    -0.01900
C447        C  0.51549579  0.44779661  0.73520412     0.03100
C448        C  0.51859092  0.48387350  0.70908895    -0.04800
C449        C  0.51959645  0.51923280  0.73665264    -0.01900
C450        C  0.52058920  0.51830633  0.78937775     0.03100
C451        C  0.51934358  0.40914122  0.81392676     0.37700
C452        C  0.51879446  0.55684397  0.71070923     0.37700
C453        C  0.52192890  0.55496617  0.81679387     0.36100
C454        C  0.50915066  0.41171996  0.70818175     0.36100
N455        N  0.52280926  0.58424768  0.83853655    -0.38700
N456        N  0.50343997  0.38297679  0.68683392    -0.38700
N457        N  0.51807726  0.58678925  0.68994032    -0.38100
N458        N  0.52014090  0.37924472  0.83481176    -0.38100
C459        C  0.49473360  0.49450292  0.20894525    -0.04800
C460        C  0.46190993  0.50648564  0.23880456    -0.01900
C461        C  0.46327773  0.50343688  0.29127861     0.03100
C462        C  0.49745801  0.48943319  0.31544356    -0.04800
C463        C  0.53114989  0.48064766  0.28660235    -0.01900
C464        C  0.52998131  0.48360929  0.23374444     0.03100
C465        C  0.42617342  0.52248490  0.21672422     0.37700
C466        C  0.56689015  0.46773221  0.31111520     0.37700
C467        C  0.56581934  0.47769391  0.20540272     0.36100
C468        C  0.42910288  0.51540658  0.32061489     0.36100
N469        N  0.59449411  0.47350587  0.18279500    -0.38700
N470        N  0.40173355  0.52476012  0.34363292    -0.38700
N471        N  0.59557165  0.45765772  0.33048831    -0.38100
N472        N  0.39754680  0.53539412  0.19979477    -0.38100
C473        C  0.89575614  0.40475502  0.71347397    -0.04800
C474        C  0.90911474  0.36566341  0.70472208    -0.01900
C475        C  0.88377598  0.33778829  0.68463712     0.03100
C476        C  0.84444848  0.34842859  0.67417077    -0.04800
C477        C  0.83091395  0.38738177  0.68390490    -0.01900
C478        C  0.85644826  0.41539951  0.70300470     0.03100
C479        C  0.94856736  0.35365240  0.71835336     0.37700
C480        C  0.79027391  0.39850492  0.67563077     0.37700
C481        C  0.84227266  0.45553065  0.71099697     0.36100
C482        C  0.89863509  0.29842642  0.67340246     0.36100
N483        N  0.83088294  0.48750614  0.71728316    -0.38700
N484        N  0.91054951  0.26707151  0.66428137    -0.38700
N485        N  0.75784711  0.40728186  0.66912666    -0.38100
N486        N  0.97996185  0.34413620  0.72967187    -0.38100
C487        C  0.66445075  0.33072199  0.56427668    -0.04800
C488        C  0.64693903  0.34292918  0.51891145    -0.01900
C489        C  0.61781317  0.37330657  0.51858266     0.03100
C490        C  0.60621392  0.39188678  0.56359343    -0.04800
C491        C  0.62238621  0.37818385  0.60925597    -0.01900
C492        C  0.65094637  0.34732976  0.60959267     0.03100
C493        C  0.65965945  0.32500021  0.47234580     0.37700
C494        C  0.61054443  0.39651718  0.65594714     0.37700
C495        C  0.66716405  0.33310146  0.65653226     0.36100
C496        C  0.60149648  0.38712702  0.47157764     0.36100
N497        N  0.68000697  0.32142012  0.69384993    -0.38700
N498        N  0.58854932  0.39833059  0.43410351    -0.38700
N499        N  0.60167746  0.41101427  0.69351686    -0.38100
N500        N  0.66957600  0.31088409  0.43495197    -0.38100
C501        C  0.76302129  0.24171638  0.92058150    -0.04800
C502        C  0.78982171  0.25967677  0.88767672    -0.01900
C503        C  0.78680382  0.25516018  0.83533083     0.03100
C504        C  0.75707980  0.23236067  0.81466788    -0.04800
C505        C  0.72997523  0.21480502  0.84749883    -0.01900
C506        C  0.73285620  0.21953074  0.89986093     0.03100
C507        C  0.82135754  0.28239039  0.90740571     0.37700
C508        C  0.69774197  0.19318581  0.82755791     0.37700
C509        C  0.70323442  0.20304139  0.93193168     0.36100
C510        C  0.81533789  0.27337584  0.80313620     0.36100
N511        N  0.67920647  0.18977038  0.95676154    -0.38700
N512        N  0.83843821  0.28807271  0.77816957    -0.38700
N513        N  0.67198819  0.17595519  0.81186454    -0.38100
N514        N  0.84641413  0.30070752  0.92290982    -0.38100
C515        C  0.75980750  0.23890561  0.42089800    -0.04800
C516        C  0.72580481  0.22834504  0.39522744    -0.01900
C517        C  0.72577072  0.22694416  0.34249689     0.03100
C518        C  0.76026231  0.23393886  0.31488027    -0.04800
C519        C  0.79474256  0.24243949  0.34061236    -0.01900
C520        C  0.79447064  0.24519307  0.39324401     0.03100
C521        C  0.69049486  0.21947493  0.42269951     0.37700
C522        C  0.83098821  0.24676995  0.31313343     0.37700
C523        C  0.83051694  0.25283478  0.41904824     0.36100
C524        C  0.68964915  0.21971274  0.31657793     0.36100
N525        N  0.85926168  0.25886383  0.43964420    -0.38700
N526        N  0.66082348  0.21418626  0.29589558    -0.38700
N527        N  0.85987147  0.25007406  0.29116253    -0.38100
N528        N  0.66234374  0.21208460  0.44440371    -0.38100
C529        C  0.91493019  0.40286390  0.21220030    -0.04800
C530        C  0.87751984  0.41541464  0.19579540    -0.01900
C531        C  0.85148085  0.38813919  0.17622062     0.03100
C532        C  0.86262351  0.34783953  0.17215856    -0.04800
C533        C  0.90032443  0.33532829  0.18803497    -0.01900
C534        C  0.92613790  0.36263572  0.20852808     0.03100
C535        C  0.86591631  0.45675188  0.19845612     0.37700
C536        C  0.91320055  0.29464186  0.18157605     0.37700
C537        C  0.96363083  0.34904064  0.22774541     0.36100
C538        C  0.81270388  0.40163178  0.16141159     0.36100
N539        N  0.99339038  0.33813953  0.24351605    -0.38700
N540        N  0.78178683  0.41239962  0.14960447    -0.38700
N541        N  0.92355250  0.26224359  0.17607045    -0.38100
N542        N  0.85679519  0.48973563  0.20061859    -0.38100
C543        C  0.67685323  0.32582224  0.06541015    -0.04800
C544        C  0.66675527  0.33993520  0.01750206    -0.01900
C545        C  0.63602040  0.36779113  0.01165517     0.03100
C546        C  0.61474942  0.38184654  0.05378947    -0.04800
C547        C  0.62199739  0.36428126  0.10108714    -0.01900
C548        C  0.65341117  0.33660261  0.10694711     0.03100
C549        C  0.68829695  0.32623839  0.97376584     0.37700
C550        C  0.59790922  0.37504998  0.14380468     0.37700
C551        C  0.66201595  0.31964251  0.15561557     0.36100
C552        C  0.62621132  0.38157201  0.96165931     0.36100
N553        N  0.66878530  0.30597322  0.19442701    -0.38700
N554        N  0.61881962  0.39220307  0.92156882    -0.38700
N555        N  0.57848735  0.38298259  0.17801932    -0.38100
N556        N  0.70472650  0.31580878  0.93812366    -0.38100
C557        C  0.83834141  0.65055200  0.81734277    -0.04800
C558        C  0.86052593  0.64242107  0.86059595    -0.01900
C559        C  0.89020498  0.61274672  0.85974029     0.03100
C560        C  0.89842168  0.59166299  0.81536198    -0.04800
C561        C  0.87725759  0.60093732  0.77158312    -0.01900
C562        C  0.84755989  0.63055208  0.77245647     0.03100
C563        C  0.85172698  0.66326244  0.90665666     0.37700
C564        C  0.88534723  0.57924810  0.72595892     0.37700
C565        C  0.82657473  0.64071127  0.72703052     0.36100
C566        C  0.91019684  0.60196776  0.90559043     0.36100
N567        N  0.80998132  0.64902367  0.69077669    -0.38700
N568        N  0.92537579  0.59332849  0.94270169    -0.38700
N569        N  0.89164470  0.56184516  0.68959886    -0.38100
N570        N  0.84509755  0.67972828  0.94362207    -0.38100
C571        C  0.65035505  0.63788352  0.91702022    -0.04800
C572        C  0.64152937  0.60802880  0.88221396    -0.01900
C573        C  0.61938457  0.57554752  0.89662070     0.03100
C574        C  0.60193132  0.57374318  0.94452020    -0.04800
C575        C  0.60723867  0.60522392  0.97795512    -0.01900
C576        C  0.63196945  0.63671228  0.96479430     0.03100
C577        C  0.65412049  0.61088302  0.83037615     0.37700
C578        C  0.58870384  0.60427524  0.02674880     0.37700
C579        C  0.63909034  0.66710024  0.00107388     0.36100
C580        C  0.61493030  0.54360085  0.86146042     0.36100
N581        N  0.64469223  0.69134026  0.03013724    -0.38700
N582        N  0.61219479  0.51812727  0.83332922    -0.38700
N583        N  0.57386097  0.60349253  0.06569158    -0.38100
N584        N  0.66388967  0.61302971  0.78899094    -0.38100
C585        C  0.76607351  0.74669028  0.56909748    -0.04800
C586        C  0.79805071  0.75020150  0.60173399    -0.01900
C587        C  0.79277179  0.74709289  0.65405462     0.03100
C588        C  0.75534010  0.74063072  0.67465613    -0.04800
C589        C  0.72322590  0.73798419  0.64208146    -0.01900
C590        C  0.72849754  0.74119605  0.58974765     0.03100
C591        C  0.83676018  0.75639144  0.58158833     0.37700
C592        C  0.68431077  0.73358654  0.66246818     0.37700
C593        C  0.69469185  0.74118426  0.55740216     0.36100
C594        C  0.82640647  0.74919029  0.68646716     0.36100
N595        N  0.66768690  0.74149632  0.53169692    -0.38700
N596        N  0.85326924  0.75084527  0.71220937    -0.38700
N597        N  0.65328732  0.73016583  0.67880627    -0.38100
N598        N  0.86763827  0.76154887  0.56569578    -0.38100
C599        C  0.76426711  0.73645451  0.17426950    -0.04800
C600        C  0.77198927  0.70445239  0.14157464    -0.01900
C601        C  0.76759401  0.70920315  0.08943600     0.03100
C602        C  0.75645400  0.74622436  0.06930591    -0.04800
C603        C  0.74962585  0.77847287  0.10179716    -0.01900
C604        C  0.75325155  0.77357529  0.15400803     0.03100
C605        C  0.78640520  0.66698285  0.16139085     0.37700
C606        C  0.73849384  0.81684273  0.08144269     0.37700
C607        C  0.74473827  0.80667663  0.18670672     0.36100
C608        C  0.77641488  0.67640328  0.05638419     0.36100
N609        N  0.73797795  0.83325989  0.21249027    -0.38700
N610        N  0.78352099  0.65020084  0.03011688    -0.38700
N611        N  0.72987030  0.84742124  0.06506209    -0.38100
N612        N  0.79814000  0.63725512  0.17733289    -0.38100
C613        C  0.85754003  0.64707730  0.32415471    -0.04800
C614        C  0.88838165  0.65038154  0.28932924    -0.01900
C615        C  0.91920589  0.62183357  0.28862215     0.03100
C616        C  0.91918271  0.59006184  0.32291800    -0.04800
C617        C  0.89010552  0.58903897  0.36057144    -0.01900
C618        C  0.85922506  0.61716084  0.36086257     0.03100
C619        C  0.88722645  0.68186797  0.25251079     0.37700
C620        C  0.89208364  0.55906795  0.39944601     0.37700
C621        C  0.82905862  0.61527687  0.39906831     0.36100
C622        C  0.94964758  0.62427935  0.25106513     0.36100
N623        N  0.80501159  0.61375153  0.42948193    -0.38700
N624        N  0.97369297  0.62680055  0.22080782    -0.38700
N625        N  0.89373493  0.53525953  0.43049117    -0.38100
N626        N  0.88612809  0.70704215  0.22322957    -0.38100
C627        C  0.67426954  0.63282735  0.42416782    -0.04800
C628        C  0.67453186  0.62132055  0.47479790    -0.01900
C629        C  0.64811792  0.59336911  0.49232749     0.03100
C630        C  0.62083568  0.57700927  0.45925140    -0.04800
C631        C  0.62120199  0.58830496  0.40823167    -0.01900
C632        C  0.64805264  0.61576621  0.39077721     0.03100
C633        C  0.70339289  0.63666942  0.50835311     0.37700
C634        C  0.59517955  0.57078986  0.37273170     0.37700
C635        C  0.64883913  0.62627197  0.33806126     0.36100
C636        C  0.64917731  0.58184879  0.54464655     0.36100
N637        N  0.64962480  0.63428925  0.29597811    -0.38700
N638        N  0.65040693  0.57252211  0.58628956    -0.38700
N639        N  0.57476958  0.55736440  0.34357395    -0.38100
N640        N  0.72659030  0.64850638  0.53513165    -0.38100
C641        C  0.61872682  0.88575049  0.43735592    -0.04800
C642        C  0.64225699  0.87588999  0.47922994    -0.01900
C643        C  0.67506856  0.85060374  0.47378992     0.03100
C644        C  0.68355683  0.83314270  0.42721330    -0.04800
C645        C  0.65851382  0.84031366  0.38630897    -0.01900
C646        C  0.62612287  0.86673116  0.39128517     0.03100
C647        C  0.63235309  0.89076156  0.52867086     0.37700
C648        C  0.66721130  0.82205388  0.33854001     0.37700
C649        C  0.60133292  0.87519247  0.34866505     0.36100
C650        C  0.70034386  0.84288491  0.51636190     0.36100
N651        N  0.58140780  0.88173699  0.31470380    -0.38700
N652        N  0.72040915  0.83728324  0.55042863    -0.38700
N653        N  0.67417392  0.80759885  0.30033638    -0.38100
N654        N  0.62487784  0.90195937  0.56846519    -0.38100
C655        C  0.64964952  0.13470415  0.56415672    -0.04800
C656        C  0.61301950  0.13165673  0.58793023    -0.01900
C657        C  0.58667064  0.10311534  0.57234051     0.03100
C658        C  0.59720321  0.07671561  0.53351612    -0.04800
C659        C  0.63245446  0.08202696  0.50701722    -0.01900
C660        C  0.65841216  0.11123221  0.52195290     0.03100
C661        C  0.60272194  0.15767264  0.62904968     0.37700
C662        C  0.64201158  0.05722067  0.46448018     0.37700
C663        C  0.69465911  0.11623928  0.49488439     0.36100
C664        C  0.54963333  0.09966242  0.59819097     0.36100
N665        N  0.72340303  0.12031862  0.47288285    -0.38700
N666        N  0.52002234  0.09715042  0.61870872    -0.38700
N667        N  0.64942282  0.03744949  0.43044731    -0.38100
N668        N  0.59459654  0.17856058  0.66173952    -0.38100
C669        C  0.52583670  0.98331208  0.67277906    -0.04800
C670        C  0.55885656  0.99461917  0.69973607    -0.01900
C671        C  0.55776202  0.99609121  0.75232500     0.03100
C672        C  0.52289580  0.98795640  0.77900170    -0.04800
C673        C  0.49025566  0.97539907  0.75179110    -0.01900
C674        C  0.49178127  0.97307284  0.69899885     0.03100
C675        C  0.59410486  0.00551822  0.67327950     0.37700
C676        C  0.45504917  0.96439495  0.77761884     0.37700
C677        C  0.45863954  0.95893219  0.67171889     0.36100
C678        C  0.59356651  0.00413571  0.77863929     0.36100
N679        N  0.43217883  0.94770174  0.64997840    -0.38700
N680        N  0.62220839  0.01040773  0.79935880    -0.38700
N681        N  0.42691766  0.95495026  0.79774770    -0.38100
N682        N  0.62217573  0.01415691  0.65224349    -0.38100
C683        C  0.49004144  0.98253545  0.28017636    -0.04800
C684        C  0.52540540  0.98056702  0.25255335    -0.01900
C685        C  0.52489758  0.97964083  0.19955475     0.03100
C686        C  0.48908781  0.98207128  0.17345410    -0.04800
C687        C  0.45388567  0.98516743  0.20125000    -0.01900
C688        C  0.45427651  0.98336726  0.25379861     0.03100
C689        C  0.56246603  0.98029515  0.27835164     0.37700
C690        C  0.41685500  0.99212967  0.17609174     0.37700
C691        C  0.41731471  0.98095125  0.28034555     0.36100
C692        C  0.56136435  0.97549961  0.17221179     0.36100
N693        N  0.38783365  0.97886142  0.30129543    -0.38700
N694        N  0.59061766  0.97209417  0.15072101    -0.38700
N695        N  0.38739895  0.99793611  0.15613509    -0.38100
N696        N  0.59202019  0.98006416  0.29896984    -0.38100
C697        C  0.60796377  0.90616146  0.92887698    -0.04800
C698        C  0.59950422  0.86603975  0.92162018    -0.01900
C699        C  0.62968868  0.83636822  0.92189490     0.03100
C700        C  0.66936799  0.84607640  0.92923777    -0.04800
C701        C  0.67732448  0.88638766  0.93856311    -0.01900
C702        C  0.64735942  0.91574947  0.93753400     0.03100
C703        C  0.55982713  0.85499324  0.91159745     0.37700
C704        C  0.71641587  0.89903661  0.95006593     0.37700
C705        C  0.65819874  0.95630634  0.94530414     0.36100
C706        C  0.61907681  0.79579351  0.91495143     0.36100
N707        N  0.66777072  0.98835600  0.95048687    -0.38700
N708        N  0.61023988  0.76352355  0.90955883    -0.38700
N709        N  0.74726744  0.90959629  0.95945093    -0.38100
N710        N  0.52830705  0.84588705  0.90334921    -0.38100
C711        C  0.61055608  0.07930623  0.03769856    -0.04800
C712        C  0.64527167  0.06305495  0.05793406    -0.01900
C713        C  0.67494197  0.08774843  0.07396408     0.03100
C714        C  0.66980418  0.12930322  0.07078452    -0.04800
C715        C  0.63360956  0.14537108  0.05341210    -0.01900
C716        C  0.60447394  0.12043930  0.03621593     0.03100
C717        C  0.65014324  0.02067024  0.06314240     0.37700
C718        C  0.62549320  0.18751333  0.05441754     0.37700
C719        C  0.56864197  0.13717842  0.01542568     0.36100
C720        C  0.71085571  0.06978791  0.09283547     0.36100
N721        N  0.54011166  0.15045012  0.99869554    -0.38700
N722        N  0.73927050  0.05513480  0.10809647    -0.38700
N723        N  0.61891846  0.22108705  0.05512534    -0.38100
N724        N  0.65395648  0.98690704  0.06750975    -0.38100
C725        C  0.09954944  0.60878830  0.81663652    -0.04800
C726        C  0.09345814  0.64874657  0.80388461    -0.01900
C727        C  0.12395577  0.67540427  0.80911380     0.03100
C728        C  0.16100804  0.66190088  0.82665743    -0.04800
C729        C  0.16486520  0.62296847  0.84580376    -0.01900
C730        C  0.13460186  0.59635526  0.83965276     0.03100
C731        C  0.05659434  0.66186804  0.78227472     0.37700
C732        C  0.19948329  0.61034045  0.87315023     0.37700
C733        C  0.13969596  0.55583334  0.85627062     0.36100
C734        C  0.11701143  0.71624114  0.79503186     0.36100
N735        N  0.14369143  0.52350670  0.86944500    -0.38700
N736        N  0.11091960  0.74884830  0.78430775    -0.38700
N737        N  0.22683231  0.60023916  0.89542664    -0.38100
N738        N  0.02721479  0.67227271  0.76495256    -0.38100
C739        C  0.34860754  0.64379053  0.91895233    -0.04800
C740        C  0.35915253  0.64230301  0.97002874    -0.01900
C741        C  0.38741310  0.61443901  0.98668724     0.03100
C742        C  0.40498881  0.58761412  0.95277146    -0.04800
C743        C  0.39596422  0.59010424  0.90155488    -0.01900
C744        C  0.36794079  0.61813204  0.88461088     0.03100
C745        C  0.34049290  0.66849808  0.00612638     0.37700
C746        C  0.41471884  0.56319031  0.86635265     0.37700
C747        C  0.35979351  0.62101985  0.83148702     0.36100
C748        C  0.39930631  0.61400880  0.03871491     0.36100
N749        N  0.35326561  0.62336005  0.78916684    -0.38700
N750        N  0.40910950  0.61376589  0.08002871    -0.38700
N751        N  0.42942469  0.54182287  0.83796613    -0.38100
N752        N  0.32618668  0.68922626  0.03555806    -0.38100
C753        C  0.33525849  0.84295552  0.91069631    -0.04800
C754        C  0.37018793  0.82902819  0.93403673    -0.01900
C755        C  0.40239445  0.85368484  0.93806390     0.03100
C756        C  0.39967277  0.89282918  0.92070216    -0.04800
C757        C  0.36564621  0.90632432  0.89576088    -0.01900
C758        C  0.33420716  0.88114399  0.88916417     0.03100
C759        C  0.37251708  0.79048275  0.95754443     0.37700
C760        C  0.36218286  0.94678229  0.87851334     0.37700
C761        C  0.30079666  0.89490354  0.86018613     0.36100
C762        C  0.43711446  0.83986355  0.96433963     0.36100
N763        N  0.27427400  0.90594335  0.83695644    -0.38700
N764        N  0.46464811  0.82884076  0.98556632    -0.38700
N765        N  0.35894187  0.97901144  0.86473027    -0.38100
N766        N  0.37468085  0.75988626  0.97661888    -0.38100
C767        C  0.25515947  0.74911210  0.67099489    -0.04800
C768        C  0.29033377  0.74040447  0.64438329    -0.01900
C769        C  0.29254309  0.74613688  0.59205231     0.03100
C770        C  0.25920250  0.75877839  0.56501891    -0.04800
C771        C  0.22423468  0.76799852  0.59159927    -0.01900
C772        C  0.22270070  0.76470281  0.64426723     0.03100
C773        C  0.32517554  0.72735532  0.67098822     0.37700
C774        C  0.18916906  0.77997745  0.56471640     0.37700
C775        C  0.18755022  0.77776670  0.67051618     0.36100
C776        C  0.32986664  0.74134221  0.56660088     0.36100
N777        N  0.15966688  0.78907439  0.69106785    -0.38700
N778        N  0.35972768  0.73802289  0.54647637    -0.38700
N779        N  0.16127866  0.78943303  0.54313057    -0.38100
N780        N  0.35293988  0.71687055  0.69214516    -0.38100
C781        C  0.25327690  0.76007421  0.06503068    -0.04800
C782        C  0.26681401  0.79075677  0.09529338    -0.01900
C783        C  0.27005372  0.78565639  0.14766267     0.03100
C784        C  0.26093200  0.74933480  0.17043247    -0.04800
C785        C  0.24755773  0.71860749  0.14006413    -0.01900
C786        C  0.24381528  0.72391163  0.08781513     0.03100
C787        C  0.27963894  0.82691975  0.07223319     0.37700
C788        C  0.23610332  0.68182047  0.16274096     0.37700
C789        C  0.22967964  0.69208073  0.05760643     0.36100
C790        C  0.28385052  0.81767279  0.17780205     0.36100
N791        N  0.21870844  0.66662120  0.03341616    -0.38700
N792        N  0.29464343  0.84336224  0.20173834    -0.38700
N793        N  0.22690007  0.65251452  0.18082777    -0.38100
N794        N  0.29019698  0.85555310  0.05369229    -0.38100
C795        C  0.18149459  0.66213529  0.32257047    -0.04800
C796        C  0.14825401  0.67246550  0.29345272    -0.01900
C797        C  0.11802298  0.64548994  0.28732830     0.03100
C798        C  0.12027912  0.60809366  0.31040406    -0.04800
C799        C  0.15236720  0.59830098  0.34116410    -0.01900
C800        C  0.18242849  0.62533549  0.34794048     0.03100
C801        C  0.14587768  0.70983272  0.26710130     0.37700
C802        C  0.15530902  0.55958772  0.36411183     0.37700
C803        C  0.21436021  0.61504314  0.38122677     0.36100
C804        C  0.08561940  0.65518321  0.25445617     0.36100
N805        N  0.23979766  0.60676606  0.40781507    -0.38700
N806        N  0.05989829  0.66266580  0.22796067    -0.38700
N807        N  0.15783361  0.52861780  0.38214278    -0.38100
N808        N  0.14370289  0.73961944  0.24604416    -0.38100
C809        C  0.36857364  0.64176479  0.42311450    -0.04800
C810        C  0.35742912  0.61470568  0.46039577    -0.01900
C811        C  0.38305579  0.58311548  0.47481912     0.03100
C812        C  0.42061196  0.57845731  0.45275121    -0.04800
C813        C  0.43262592  0.60740706  0.41798331    -0.01900
C814        C  0.40675706  0.63863586  0.40324650     0.03100
C815        C  0.31929013  0.61913381  0.48358018     0.37700
C816        C  0.47078799  0.60401548  0.39469788     0.37700
C817        C  0.41923301  0.66740424  0.36673235     0.36100
C818        C  0.37060635  0.55529697  0.51247829     0.36100
N819        N  0.42920026  0.69047230  0.33777281    -0.38700
N820        N  0.36064709  0.53308554  0.54251721    -0.38700
N821        N  0.50117203  0.60170709  0.37582729    -0.38100
N822        N  0.28900495  0.62282598  0.50251773    -0.38100
C823        C  0.41603769  0.89722187  0.43674326    -0.04800
C824        C  0.41793266  0.86772774  0.39966742    -0.01900
C825        C  0.38786489  0.84016109  0.39602362     0.03100
C826        C  0.35604920  0.84164648  0.42995822    -0.04800
C827        C  0.35652588  0.86870888  0.47003073    -0.01900
C828        C  0.38589783  0.89670721  0.47284218     0.03100
C829        C  0.44939428  0.86745405  0.36321405     0.37700
C830        C  0.32658848  0.86791294  0.50860939     0.37700
C831        C  0.38451979  0.92587480  0.51230573     0.36100
C832        C  0.38849996  0.81209235  0.35544960     0.36100
N833        N  0.38334519  0.94934540  0.54347652    -0.38700
N834        N  0.38913134  0.78981127  0.32289894    -0.38700
N835        N  0.30279321  0.86724158  0.53942302    -0.38100
N836        N  0.47456162  0.86734150  0.33421305    -0.38100
C837        C  0.14976804  0.36892972  0.66819572    -0.04800
C838        C  0.13018158  0.36831859  0.71519667    -0.01900
C839        C  0.10083567  0.39720817  0.72695707     0.03100
C840        C  0.09201972  0.42814331  0.69311982    -0.04800
C841        C  0.11113542  0.42861907  0.64613889    -0.01900
C842        C  0.13914723  0.39910456  0.63342603     0.03100
C843        C  0.14170127  0.33969169  0.75305275     0.37700
C844        C  0.10188663  0.45959480  0.61006361     0.37700
C845        C  0.15659950  0.40019617  0.58379860     0.36100
C846        C  0.08082418  0.39602114  0.77480716     0.36100
N847        N  0.17050776  0.40145694  0.54431387    -0.38700
N848        N  0.06469654  0.39503147  0.81288973    -0.38700
N849        N  0.09512141  0.48425814  0.58115590    -0.38100
N850        N  0.15108655  0.31728796  0.78372069    -0.38100
C851        C  0.34054614  0.34053247  0.57448887    -0.04800
C852        C  0.34159353  0.37706440  0.59947575    -0.01900
C853        C  0.37386465  0.40115621  0.59330476     0.03100
C854        C  0.40545467  0.38864339  0.56300888    -0.04800
C855        C  0.40625617  0.35080597  0.54182368    -0.01900
C856        C  0.37378090  0.32673134  0.54729570     0.03100
C857        C  0.30942316  0.39014689  0.63134769     0.37700
C858        C  0.43942350  0.33778135  0.51157613     0.37700
C859        C  0.37378572  0.28909878  0.52192377     0.36100
C860        C  0.37429128  0.43940189  0.61706682     0.36100
N861        N  0.37391535  0.25912491  0.50163573    -0.38700
N862        N  0.37481461  0.46990621  0.63594721    -0.38700
N863        N  0.46585645  0.32744931  0.48743251    -0.38100
N864        N  0.28379967  0.40066515  0.65674815    -0.38100
C865        C  0.40191717  0.08516194  0.53532186    -0.04800
C866        C  0.37982349  0.10893995  0.50176331    -0.01900
C867        C  0.35342747  0.13810501  0.51998992     0.03100
C868        C  0.34834152  0.14331107  0.57206580    -0.04800
C869        C  0.37128566  0.12011586  0.60555138    -0.01900
C870        C  0.39804726  0.09135536  0.58723473     0.03100
C871        C  0.38491632  0.10411244  0.44817088     0.37700
C872        C  0.36827368  0.12637218  0.65911050     0.37700
C873        C  0.42092741  0.06765167  0.62219112     0.36100
C874        C  0.33116853  0.16206879  0.48470230     0.36100
N875        N  0.43912243  0.04919133  0.65056776    -0.38700
N876        N  0.31399660  0.18104019  0.45582571    -0.38700
N877        N  0.36603187  0.13115537  0.70183974    -0.38100
N878        N  0.38896660  0.10024207  0.40548240    -0.38100
C879        C  0.25865640  0.26242133  0.92581477    -0.04800
C880        C  0.24145465  0.22839380  0.90695624    -0.01900
C881        C  0.23870097  0.22262946  0.85484783     0.03100
C882        C  0.25130840  0.25179318  0.82098587    -0.04800
C883        C  0.26693601  0.28665927  0.83987726    -0.01900
C884        C  0.27082109  0.29185373  0.89198202     0.03100
C885        C  0.22397644  0.20067479  0.94118519     0.37700
C886        C  0.28052496  0.31659795  0.80563739     0.37700
C887        C  0.28779338  0.32743889  0.91068479     0.36100
C888        C  0.22206644  0.18690820  0.83613327     0.36100
N889        N  0.30117037  0.35590416  0.92554389    -0.38700
N890        N  0.20897849  0.15830200  0.82128217    -0.38700
N891        N  0.29136362  0.34042411  0.77827070    -0.38100
N892        N  0.20949643  0.17901323  0.96860044    -0.38100
C893        C  0.25524047  0.25163275  0.32050507    -0.04800
C894        C  0.23895312  0.22233303  0.35142170    -0.01900
C895        C  0.23671507  0.22739404  0.40390909     0.03100
C896        C  0.25031970  0.26195106  0.42616152    -0.04800
C897        C  0.26573441  0.29161793  0.39519837    -0.01900
C898        C  0.26825063  0.28646450  0.34284861     0.03100
C899        C  0.22305890  0.18753301  0.32914137     0.37700
C900        C  0.28040597  0.32708941  0.41733196     0.37700
C901        C  0.28575296  0.31660840  0.31229485     0.36100
C902        C  0.21934016  0.19745875  0.43498187     0.36100
N903        N  0.29979487  0.34074932  0.28815625    -0.38700
N904        N  0.20555042  0.17366165  0.45996864    -0.38700
N905        N  0.29212783  0.35540917  0.43482537    -0.38100
N906        N  0.21017838  0.15984475  0.31143255    -0.38100
C907        C  0.10909061  0.42779314  0.19191100    -0.04800
C908        C  0.12042689  0.42166872  0.14170488    -0.01900
C909        C  0.14773762  0.39155414  0.12944836     0.03100
C910        C  0.16487496  0.36779679  0.16746013    -0.04800
C911        C  0.15224122  0.37283427  0.21760170    -0.01900
C912        C  0.12446195  0.40291860  0.22975137     0.03100
C913        C  0.10410487  0.44652770  0.10228932     0.37700
C914        C  0.16869266  0.34818469  0.25701099     0.37700
C915        C  0.11322277  0.40968795  0.28141482     0.36100
C916        C  0.15731465  0.38442421  0.07723014     0.36100
N917        N  0.10437702  0.41533697  0.32262732    -0.38700
N918        N  0.16477866  0.37871174  0.03560145    -0.38700
N919        N  0.18158438  0.32850127  0.28860948    -0.38100
N920        N  0.09159747  0.46626415  0.07051396    -0.38100
C921        C  0.35551283  0.34433711  0.07204468    -0.04800
C922        C  0.35940123  0.37199756  0.11057282    -0.01900
C923        C  0.38952428  0.39924815  0.10891012     0.03100
C924        C  0.41450586  0.40155530  0.06677225    -0.04800
C925        C  0.41183196  0.37264323  0.02907925    -0.01900
C926        C  0.38314963  0.34337653  0.03258026     0.03100
C927        C  0.33162619  0.37304428  0.15172036     0.37700
C928        C  0.43672468  0.37440857  0.98524259     0.37700
C929        C  0.38099692  0.31328139  0.99462896     0.36100
C930        C  0.39522579  0.42424976  0.15168001     0.36100
N931        N  0.37936997  0.28891472  0.96475123    -0.38700
N932        N  0.39949234  0.44317064  0.18684783    -0.38700
N933        N  0.45626064  0.37588576  0.94990472    -0.38100
N934        N  0.30910509  0.37418691  0.18406548    -0.38100
C935        C  0.36519016  0.14399534  0.07081176    -0.04800
C936        C  0.35528603  0.12147802  0.02886026    -0.01900
C937        C  0.37818439  0.08778812  0.01554530     0.03100
C938        C  0.41257365  0.07780113  0.04217627    -0.04800
C939        C  0.42321810  0.10135359  0.08306638    -0.01900
C940        C  0.39937397  0.13386808  0.09766679     0.03100
C941        C  0.32061647  0.13200990  0.00060588     0.37700
C942        C  0.45716502  0.09045120  0.11278059     0.36100
C943        C  0.40948759  0.15634058  0.14145267     0.36100
C944        C  0.36544255  0.06267730  0.97566406     0.36100
N945        N  0.41750303  0.17405937  0.17653369    -0.38700
N946        N  0.35465167  0.04249951  0.94430479    -0.38700
N947        N  0.48406845  0.08181435  0.13675487    -0.38100
N948        N  0.29313520  0.14043708  0.97766713    -0.38100
C949        C  0.90235518  0.08976951  0.65806304    -0.04800
C950        C  0.87666290  0.09270912  0.61685232    -0.01900
C951        C  0.84568894  0.12101969  0.61654592     0.03100
C952        C  0.83966952  0.14647224  0.65756019    -0.04800
C953        C  0.86659478  0.14508854  0.69741535    -0.01900
C954        C  0.89796428  0.11707540  0.69748962     0.03100
C955        C  0.88202641  0.06654241  0.57450144     0.37700
C956        C  0.86060613  0.17059376  0.74018000     0.37700
C957        C  0.92417432  0.11492704  0.73978725     0.36100
C958        C  0.82001712  0.12420905  0.57372613     0.36100
N959        N  0.94487029  0.11352821  0.77376762    -0.38700
N960        N  0.79954779  0.12704092  0.53961258    -0.38700
N961        N  0.85599347  0.19056954  0.77469499    -0.38100
N962        N  0.88618214  0.04564350  0.54076381    -0.38100
C963        C  0.84795953  0.85253071  0.81561993    -0.04800
C964        C  0.88590204  0.84064883  0.79937179    -0.01900
C965        C  0.91134582  0.86842598  0.77859989     0.03100
C966        C  0.89949136  0.90845265  0.77454241    -0.04800
C967        C  0.86196075  0.92049944  0.79123966    -0.01900
C968        C  0.83614419  0.89273350  0.81096773     0.03100
C969        C  0.89946463  0.80008108  0.80529960     0.37700
C970        C  0.85027564  0.96186185  0.78950881     0.37700
C971        C  0.79689794  0.90568675  0.82489278     0.36100
C972        C  0.94948062  0.85559988  0.76012412     0.36100
N973        N  0.76558415  0.91609347  0.83578428    -0.38700
N974        N  0.97984428  0.84544701  0.74518043    -0.38700
N975        N  0.84114770  0.99488740  0.78839460    -0.38100
N976        N  0.91040606  0.76776023  0.81002854    -0.38100
C977        C  0.09409472  0.91994007  0.77744683    -0.04800
C978        C  0.08238923  0.89235968  0.81409173    -0.01900
C979        C  0.10897991  0.86293980  0.83107936     0.03100
C980        C  0.14692493  0.86022619  0.81080270    -0.04800
C981        C  0.15729424  0.88484949  0.77066803    -0.01900
C982        C  0.13115360  0.91503628  0.75439880     0.03100
C983        C  0.04386065  0.89544361  0.83672926     0.37700
C984        C  0.19507450  0.87933778  0.74669054     0.37700
C985        C  0.14245479  0.94105523  0.71404981     0.36100
C986        C  0.09769688  0.83605245  0.87054208     0.36100
N987        N  0.15151590  0.96179836  0.68186044    -0.38700
N988        N  0.08870248  0.81461411  0.90200245    -0.38700
N989        N  0.22510501  0.87456294  0.72739248    -0.38100
N990        N  0.01311102  0.89772933  0.85468449    -0.38100
C991        C  0.10279803  0.11078722  0.66689557    -0.04800
C992        C  0.09856495  0.14632085  0.69359513    -0.01900
C993        C  0.12859924  0.17372834  0.69256195     0.03100
C994        C  0.16295420  0.16567637  0.66455607    -0.04800
C995        C  0.16546689  0.13166052  0.63425126    -0.01900
C996        C  0.13575399  0.10398587  0.63613808     0.03100
C997        C  0.06458084  0.15321676  0.72526265     0.37700
C998        C  0.19875096  0.12495948  0.60125876     0.37700
C999        C  0.13976773  0.06774550  0.60795237     0.36100
C1000       C  0.12516072  0.20870556  0.72319695     0.36100
N1001       N  0.14311610  0.03881803  0.58554866    -0.38700
N1002       N  0.12229596  0.23655609  0.74773015    -0.38700
N1003       N  0.22521289  0.11969949  0.57484256    -0.38100
N1004       N  0.03753411  0.15853264  0.75065396    -0.38100
C1005       C  0.01049087  0.01150484  0.41229011    -0.04800
C1006       C  0.00591695  0.04590816  0.44156307    -0.01900
C1007       C  0.99974498  0.04310039  0.49372449     0.03100
C1008       C  0.99841232  0.00588380  0.51746261    -0.04800
C1009       C  0.00270276  0.97149686  0.48824639    -0.01900
C1010       C  0.00825324  0.97424052  0.43596940     0.03100
C1011       C  0.00632966  0.08440501  0.41793582     0.37700
C1012       C  0.00340251  0.93310960  0.51221523     0.37700
C1013       C  0.01343842  0.93843679  0.40702434     0.36100
C1014       C  0.99363007  0.07870150  0.52280423     0.36100
N1015       N  0.01762465  0.90994750  0.38389233    -0.38700
N1016       N  0.98872402  0.10698406  0.54615511    -0.38700
N1017       N  0.00423494  0.90244304  0.53119355    -0.38100
N1018       N  0.00664509  0.11514592  0.39920478    -0.38100
C1019       C  0.01218551  0.01374740  0.91178791    -0.04800
C1020       C  0.97867557  0.02985748  0.93573083    -0.01900
C1021       C  0.97614077  0.03041347  0.98853876     0.03100
C1022       C  0.00722251  0.01484170  0.01808918    -0.04800
C1023       C  0.04074638  0.99869868  0.99392882    -0.01900
C1024       C  0.04334080  0.99845186  0.94117638     0.03100
C1025       C  0.94730463  0.04712979  0.90596944     0.37700
C1026       C  0.07175313  0.98020710  0.02321091     0.37700
C1027       C  0.07783423  0.98133275  0.91710644     0.36100
C1028       C  0.94156786  0.04760603  0.01226362     0.36100
N1029       N  0.10541700  0.96775223  0.89805412    -0.38700
N1030       N  0.91380720  0.06123205  0.03084202    -0.38700
N1031       N  0.09630844  0.96521549  0.04661068    -0.38100
N1032       N  0.92238405  0.06100660  0.88215552    -0.38100
C1033       C  0.92177090  0.09506212  0.17950757    -0.04800
C1034       C  0.92037687  0.12469425  0.14227683    -0.01900
C1035       C  0.88838574  0.15186420  0.14043324     0.03100
C1036       C  0.85827660  0.15004704  0.17668505    -0.04800
C1037       C  0.86251932  0.12362816  0.21740581    -0.01900
C1038       C  0.89413584  0.09628845  0.21879200     0.03100
C1039       C  0.95089611  0.12621916  0.10460463     0.37700
C1040       C  0.83419971  0.12452638  0.25797931     0.37700
C1041       C  0.89859222  0.06962128  0.26104743     0.36100
C1042       C  0.88555329  0.17976479  0.09937764     0.36100
N1043       N  0.90238925  0.04858527  0.29492650    -0.38700
N1044       N  0.88408806  0.20160466  0.06608217    -0.38700
N1045       N  0.81154103  0.12539339  0.29020573    -0.38100
N1046       N  0.97538627  0.12761382  0.07476406    -0.38100
C1047       C  0.91535578  0.90412247  0.27158618    -0.04800
C1048       C  0.93012199  0.86674711  0.28728495    -0.01900
C1049       C  0.90471606  0.83858935  0.30706070     0.03100
C1050       C  0.86444419  0.84760727  0.31183894    -0.04800
C1051       C  0.84949596  0.88449347  0.29544403    -0.01900
C1052       C  0.87476416  0.91283297  0.27612650     0.03100
C1053       C  0.97132822  0.85667923  0.28203705     0.37700
C1054       C  0.80770265  0.89267253  0.29650463     0.37700
C1055       C  0.85869872  0.95133381  0.26233410     0.36100
C1056       C  0.92012222  0.80034459  0.32285689     0.36100
N1057       N  0.84552786  0.98189720  0.25146485    -0.38700
N1058       N  0.93237268  0.76976291  0.33519441    -0.38700
N1059       N  0.77436230  0.89890552  0.29694035    -0.38100
N1060       N  0.00422090  0.84874224  0.27795428    -0.38100
C1061       C  0.16794278  0.86683977  0.31933540    -0.04800
C1062       C  0.15375515  0.86923795  0.26960115    -0.01900
C1063       C  0.12550433  0.89875605  0.25579333     0.03100
C1064       C  0.11175445  0.92672393  0.29113106    -0.04800
C1065       C  0.12567425  0.92407270  0.34075020    -0.01900
C1066       C  0.15275184  0.89407057  0.35494842     0.03100
C1067       C  0.16937510  0.84258874  0.23187802     0.37700
C1068       C  0.11220129  0.95244271  0.37790144     0.37700
C1069       C  0.16401927  0.89087098  0.40711148     0.36100
C1070       C  0.11203863  0.90151641  0.20461729     0.36100
N1071       N  0.17280600  0.88845036  0.44873630    -0.38700
N1072       N  0.10139508  0.90370912  0.16370794    -0.38700
N1073       N  0.10213260  0.97507816  0.40779009    -0.38100
N1074       N  0.18184250  0.82145196  0.20160385    -0.38100
C1075       C  0.17936485  0.16574058  0.16377400    -0.04800
C1076       C  0.14652628  0.17430812  0.19467910    -0.01900
C1077       C  0.11646271  0.14704305  0.19928492     0.03100
C1078       C  0.11905683  0.11095481  0.17357690    -0.04800
C1079       C  0.15042532  0.10329509  0.14053932    -0.01900
C1080       C  0.18024778  0.13073803  0.13511534     0.03100
C1081       C  0.14490400  0.20960483  0.22497333     0.37700
C1082       C  0.15280426  0.06628299  0.11381864     0.37700
C1083       C  0.21214391  0.12246679  0.10053101     0.36100
C1084       C  0.08382615  0.15509053  0.23284292     0.36100
N1085       N  0.23757618  0.11569248  0.07300151    -0.38700
N1086       N  0.05784599  0.16147029  0.25967241    -0.38700
N1087       N  0.15467994  0.03665166  0.09276004    -0.38100
N1088       N  0.14372979  0.23766560  0.24928108    -0.38100
loop_ 
_geom_bond_atom_site_label_1 
_geom_bond_atom_site_label_2 
_geom_bond_distance 
_geom_bond_site_symmetry_2 
_ccdc_geom_bond_type 
O1           Ni7   1.929       .  S
O1           C22   1.272       .  A
O2          Ni25   1.919       .  S
O2           C11   1.270       .  A
O3           Ni7   1.916   1_455  S
O3          Ni25   1.919   1_565  S
O3          Ni19   1.919       .  S
O3           H26   0.966       .  S
C4           O21   1.277   1_545  A
C4           O13   1.278       .  A
C4         C1005   1.495       .  S
O5          Ni24   1.923       .  S
O5           C11   1.270       .  A
O6          Ni24   1.909   1_565  S
O6            C8   1.270       .  A
Ni7          O10   1.930       .  S
Ni7          O12   1.902   1_565  S
C8           O18   1.278       .  A
C8         C1064   1.499       .  S
O9          Ni25   1.923       .  S
O9           C15   1.278       .  A
O10          C15   1.274   1_665  A
C11        C1078   1.480       .  S
O12          C14   1.268       .  A
O13         Ni24   1.927       .  S
C14          O20   1.273       .  A
C14        C1033   1.486       .  S
C15        C1022   1.496       .  S
H16          O17   0.966       .  S
O17         Ni25   1.917       .  S
O17         Ni19   1.897   1_545  S
O17         Ni24   1.901       .  S
O18         Ni19   1.949       .  S
Ni19         O23   1.905   1_455  S
Ni19         O21   1.923       .  S
O20         Ni25   1.940   1_655  S
C22          O23   1.269       .  A
C22        C1047   1.494       .  S
O27         Ni33   1.937       .  S
O27          C48   1.274       .  A
O28         Ni51   1.915       .  S
O28          C37   1.269       .  A
O29         Ni33   1.910       .  S
O29         Ni51   1.912   1_665  S
O29         Ni45   1.925       .  S
O29          H52   0.966   1_655  S
C30          O47   1.284   1_445  A
C30          O39   1.278       .  A
C30        C1019   1.491       .  S
O31         Ni50   1.920       .  S
O31          C37   1.267       .  A
O32         Ni50   1.905   1_565  S
O32          C34   1.266       .  A
Ni33         O36   1.931       .  S
Ni33         O38   1.908   1_565  S
C34          O44   1.269       .  A
C34         C977   1.488       .  S
O35         Ni51   1.917       .  S
O35          C41   1.275   1_455  A
O36          C41   1.277   1_565  A
C37         C991   1.475       .  S
O38          C40   1.270       .  A
O39         Ni50   1.923       .  S
C40          O46   1.277       .  A
C40         C949   1.494       .  S
C41        C1008   1.492       .  S
H42          O43   0.965   1_655  S
O43         Ni51   1.910       .  S
O43         Ni45   1.895   1_445  S
O43         Ni50   1.906       .  S
O44         Ni45   1.922   1_455  S
Ni45         O49   1.910       .  S
Ni45         O47   1.936       .  S
O46         Ni51   1.941   1_655  S
C48          O49   1.268       .  A
C48         C966   1.488       .  S
O53         Ni59   1.924       .  S
O53          C74   1.270       .  A
O54         Ni77   1.918       .  S
O54          C63   1.272       .  A
O55         Ni59   1.908       .  S
O55         Ni77   1.900       .  S
O55         Ni71   1.905       .  S
O55          H78   0.966       .  S
C56          O73   1.269       .  A
C56          O65   1.272       .  A
C56         C893   1.499       .  S
O57         Ni76   1.923       .  S
O57          C63   1.271       .  A
O58         Ni76   1.902       .  S
O58          C60   1.270       .  A
Ni59         O62   1.918   1_554  S
Ni59         O64   1.905       .  S
C60          O70   1.277       .  A
C60        C1075   1.495       .  S
O61         Ni77   1.935       .  S
O61          C67   1.283   1_554  A
O62          C67   1.276       .  A
C63         C935   1.487       .  S
O64          C66   1.268       .  A
O65         Ni76   1.936       .  S
C66          O72   1.275       .  A
C66         C921   1.493       .  S
C67         C879   1.490       .  S
H68          O69   0.966       .  S
O69         Ni77   1.944       .  S
O69         Ni71   1.924       .  S
O69         Ni76   1.926       .  S
O70         Ni71   1.941       .  S
Ni71         O75   1.911       .  S
Ni71         O73   1.913       .  S
O72         Ni77   1.946       .  S
C74          O75   1.266       .  A
C74         C910   1.488       .  S
O79         Ni85   1.930       .  S
O79         C100   1.270       .  A
O80        Ni103   1.907       .  S
O80          C89   1.267       .  A
O81         Ni85   1.908       .  S
O81        Ni103   1.903       .  S
O81         Ni97   1.915       .  S
O81         H104   0.966       .  S
C82          O99   1.277       .  A
C82          O91   1.274       .  A
C82         C882   1.490       .  S
O83        Ni102   1.927       .  S
O83          C89   1.270       .  A
O84        Ni102   1.899       .  S
O84          C86   1.268       .  A
Ni85         O88   1.931       .  S
Ni85         O90   1.902       .  S
C86          O96   1.272       .  A
C86         C994   1.485       .  S
O87        Ni103   1.929       .  S
O87          C93   1.280       .  A
O88          C93   1.279       .  A
C89         C868   1.488       .  S
O90          C92   1.267       .  A
O91        Ni102   1.922       .  S
C92          O98   1.266       .  A
C92         C851   1.484       .  S
C93         C896   1.496       .  S
H94          O95   0.966       .  S
O95        Ni103   1.921       .  S
O95         Ni97   1.917       .  S
O95        Ni102   1.913       .  S
O96         Ni97   1.928       .  S
Ni97        O101   1.926       .  S
Ni97         O99   1.926       .  S
O98        Ni103   1.914       .  S
C100        O101   1.271       .  A
C100        C837   1.509       .  S
O105       Ni111   1.945       .  S
O105        C126   1.275       .  A
O106       Ni129   1.928       .  S
O106        C115   1.270       .  A
O107       Ni111   1.923       .  S
O107       Ni129   1.931       .  S
O107       Ni123   1.934       .  S
O107        H130   0.966       .  S
C108        O125   1.283       .  A
C108        O117   1.277       .  A
C108        C770   1.497       .  S
O109       Ni128   1.932       .  S
O109        C115   1.271       .  A
O110       Ni128   1.904       .  S
O110        C112   1.269       .  A
Ni111       O114   1.939       .  S
Ni111       O116   1.912       .  S
C112        O122   1.275       .  A
C112        C826   1.497       .  S
O113       Ni129   1.909       .  S
O113        C119   1.269       .  A
O114        C119   1.276       .  A
C115       C1061   1.508       .  S
O116        C118   1.273       .  A
O117       Ni128   1.919       .  S
C118        O124   1.279       .  A
C118        C795   1.506       .  S
C119        C784   1.499       .  S
H120        O121   0.966       .  S
O121       Ni129   1.903       .  S
O121       Ni123   1.908       .  S
O121       Ni128   1.905       .  S
O122       Ni123   1.945       .  S
Ni123       O127   1.927       .  S
Ni123       O125   1.933       .  S
O124       Ni129   1.947       .  S
C126        O127   1.273       .  A
C126        C809   1.501       .  S
O131       Ni137   1.925       .  S
O131        C152   1.269       .  A
O132       Ni155   1.896       .  S
O132        C141   1.264       .  A
O133       Ni137   1.911       .  S
O133       Ni155   1.898       .  S
O133       Ni149   1.905       .  S
O133        H156   0.966       .  S
C134        O151   1.272   1_554  A
C134        O143   1.277   1_554  A
C134        C781   1.497       .  S
O135       Ni154   1.940       .  S
O135        C141   1.274       .  A
O136       Ni154   1.909       .  S
O136        C138   1.271       .  A
Ni137       O140   1.922       .  S
Ni137       O142   1.905       .  S
C138        O148   1.271       .  A
C138        C753   1.498       .  S
O139       Ni155   1.928       .  S
O139        C145   1.278       .  A
O140        C145   1.276       .  A
C141        C980   1.476       .  S
O142        C144   1.268       .  A
O143       Ni154   1.937       .  S
C144        O150   1.270       .  A
C144        C728   1.499       .  S
C145        C767   1.501       .  S
H146        O147   0.966       .  S
O147       Ni155   1.921       .  S
O147       Ni149   1.910       .  S
O147       Ni154   1.918       .  S
O148       Ni149   1.923       .  S
Ni149       O153   1.902       .  S
Ni149       O151   1.912       .  S
O150       Ni155   1.927       .  S
C152        O153   1.265       .  A
C152        C739   1.486       .  S
O157       Ni163   1.926       .  S
O157        C178   1.270   1_556  A
O158       Ni181   1.920       .  S
O158        C167   1.276       .  A
O159       Ni163   1.885       .  S
O159       Ni181   1.902   1_545  S
O159       Ni175   1.919   1_556  S
O159        H182   0.966       .  S
C160        O177   1.283       .  A
C160        O169   1.282       .  A
C160        C686   1.498       .  S
O161       Ni180   1.923   1_556  S
O161        C167   1.272       .  A
O162       Ni180   1.913   1_545  S
O162        C164   1.268       .  A
Ni163       O166   1.910       .  S
Ni163       O168   1.910   1_545  S
C164        O174   1.271       .  A
C164        C938   1.491       .  S
O165       Ni181   1.942       .  S
O165        C171   1.282       .  A
O166        C171   1.275   1_545  A
C167        C756   1.481       .  S
O168        C170   1.270       .  A
O169       Ni180   1.925       .  S
C170        O176   1.279       .  A
C170        C697   1.515       .  S
C171        C672   1.502       .  S
H172        O173   0.966       .  S
O173       Ni181   1.912   1_554  S
O173       Ni175   1.888   1_565  S
O173       Ni180   1.882       .  S
O174       Ni175   1.928       .  S
Ni175       O179   1.908       .  S
Ni175       O177   1.932   1_545  S
O176       Ni181   1.949       .  S
C178        O179   1.268       .  A
C178        C711   1.478       .  S
O183       Ni189   1.903       .  S
O183        C204   1.265       .  A
O184       Ni207   1.902       .  S
O184        C193   1.266       .  A
O185       Ni189   1.891       .  S
O185       Ni207   1.888   1_565  S
O185       Ni201   1.922       .  S
O185        H208   0.966       .  S
C186        O203   1.280       .  A
C186        O195   1.276   1_565  A
C186        C683   1.500       .  S
O187       Ni206   1.925       .  S
O187        C193   1.270       .  A
O188       Ni206   1.906   1_565  S
O188        C190   1.269       .  A
Ni189       O192   1.918       .  S
Ni189       O194   1.903   1_565  S
C190        O200   1.275       .  A
C190        C823   1.490       .  S
O191       Ni207   1.931       .  S
O191        C197   1.282   1_545  A
O192        C197   1.279       .  A
C193        C865   1.482       .  S
O194        C196   1.265       .  A
O195       Ni206   1.914       .  S
C196        O202   1.271       .  A
C196        C658   1.491       .  S
C197        C669   1.486       .  S
H198        O199   0.966       .  S
O199       Ni207   1.921       .  S
O199       Ni201   1.915   1_545  S
O199       Ni206   1.899       .  S
O200       Ni201   1.940       .  S
Ni201       O205   1.926       .  S
Ni201       O203   1.932       .  S
O202       Ni207   1.934       .  S
C204        O205   1.271       .  A
C204        C641   1.485       .  S
O209       Ni215   1.934       .  S
O209        C230   1.272       .  A
O210       Ni233   1.907       .  S
O210        C219   1.268       .  A
O211       Ni215   1.914       .  S
O211       Ni233   1.911       .  S
O211       Ni227   1.922       .  S
O211        H234   0.966       .  S
C212        O229   1.279       .  A
C212        O221   1.274       .  A
C212        C599   1.490       .  S
O213       Ni232   1.918       .  S
O213        C219   1.267       .  A
O214       Ni232   1.901       .  S
O214        C216   1.267       .  A
Ni215       O218   1.930       .  S
Ni215       O220   1.903       .  S
C216        O226   1.269       .  A
C216        C613   1.479       .  S
O217       Ni233   1.920       .  S
O217        C223   1.275       .  A
O218        C223   1.276       .  A
C219        C627   1.476       .  S
O220        C222   1.269       .  A
O221       Ni232   1.915       .  S
C222        O228   1.271       .  A
C222        C644   1.474       .  S
C223        C585   1.497       .  S
H224        O225   0.966       .  S
O225       Ni233   1.911       .  S
O225       Ni227   1.904       .  S
O225       Ni232   1.908       .  S
O226       Ni227   1.924       .  S
Ni227       O231   1.904       .  S
Ni227       O229   1.928       .  S
O228       Ni233   1.924       .  S
C230        O231   1.266       .  A
C230       C1050   1.483       .  S
O235       Ni241   1.930       .  S
O235        C256   1.271       .  A
O236       Ni259   1.944       .  S
O236        C245   1.277       .  A
O237       Ni241   1.895       .  S
O237       Ni259   1.917       .  S
O237       Ni253   1.911       .  S
O237        H260   0.965       .  S
C238        O255   1.278       .  A
C238        O247   1.280       .  A
C238        C588   1.497       .  S
O239       Ni258   1.930       .  S
O239        C245   1.272       .  A
O240       Ni258   1.904       .  S
O240        C242   1.267       .  A
Ni241       O244   1.909       .  S
Ni241       O246   1.898       .  S
C242        O252   1.270       .  A
C242        C557   1.482       .  S
O243       Ni259   1.934       .  S
O243        C249   1.281   1_556  A
O244        C249   1.273   1_556  A
C245        C571   1.517       .  S
O246        C248   1.267       .  A
O247       Ni258   1.935       .  S
C248        O254   1.278       .  A
C248        C700   1.526       .  S
C249        C602   1.485       .  S
H250        O251   0.966       .  S
O251       Ni259   1.922       .  S
O251       Ni253   1.907       .  S
O251       Ni258   1.903       .  S
O252       Ni253   1.930       .  S
Ni253       O257   1.915       .  S
Ni253       O255   1.920       .  S
O254       Ni259   1.950       .  S
C256        O257   1.269       .  A
C256        C963   1.499       .  S
O261       Ni267   1.921       .  S
O261        C282   1.267       .  A
O262       Ni285   1.916       .  S
O262        C271   1.270       .  A
O263       Ni267   1.918       .  S
O263       Ni285   1.913       .  S
O263       Ni279   1.907       .  S
O263        H286   0.966       .  S
C264        O281   1.270   1_556  A
C264        O273   1.275       .  A
C264        C501   1.503       .  S
O265       Ni284   1.933       .  S
O265        C271   1.273       .  A
O266       Ni284   1.907       .  S
O266        C268   1.269       .  A
Ni267       O270   1.910       .  S
Ni267       O272   1.906       .  S
C268        O278   1.273       .  A
C268        C543   1.480       .  S
O269       Ni285   1.927       .  S
O269        C275   1.279       .  A
O270        C275   1.272       .  A
C271        C532   1.497       .  S
O272        C274   1.270       .  A
O273       Ni284   1.937   1_556  S
C274        O280   1.271       .  A
C274       C1036   1.487       .  S
C275        C518   1.488       .  S
H276        O277   0.959       .  S
O277       Ni285   1.926       .  S
O277       Ni279   1.918       .  S
O277       Ni284   1.919       .  S
O278       Ni279   1.940       .  S
Ni279       O283   1.907       .  S
Ni279       O281   1.912       .  S
O280       Ni285   1.930       .  S
C282        O283   1.266       .  A
C282        C714   1.498       .  S
O287       Ni293   1.938       .  S
O287        C308   1.274       .  A
O288       Ni311   1.916       .  S
O288        C297   1.269       .  A
O289       Ni293   1.920       .  S
O289       Ni311   1.919       .  S
O289       Ni305   1.926       .  S
O289        H312   0.966       .  S
C290        O307   1.275       .  A
C290        O299   1.274       .  A
C290        C515   1.492       .  S
O291       Ni310   1.933       .  S
O291        C297   1.271       .  A
O292       Ni310   1.909       .  S
O292        C294   1.268       .  A
Ni293       O296   1.943       .  S
Ni293       O298   1.908       .  S
C294        O304   1.273       .  A
C294        C487   1.487       .  S
O295       Ni311   1.909       .  S
O295        C301   1.270       .  A
O296        C301   1.276       .  A
C297        C476   1.496       .  S
O298        C300   1.271       .  A
O299       Ni310   1.920       .  S
C300        O306   1.278       .  A
C300        C952   1.492       .  S
C301        C504   1.502       .  S
H302        O303   0.966       .  S
O303       Ni311   1.907       .  S
O303       Ni305   1.912       .  S
O303       Ni310   1.919       .  S
O304       Ni305   1.939       .  S
Ni305       O309   1.908       .  S
Ni305       O307   1.919       .  S
O306       Ni311   1.952       .  S
C308        O309   1.267       .  A
C308        C655   1.488       .  S
O313       Ni319   1.923       .  S
O313        C334   1.271   1_554  A
O314       Ni337   1.929       .  S
O314        C323   1.273       .  A
O315       Ni319   1.893       .  S
O315       Ni337   1.906       .  S
O315       Ni331   1.912   1_554  S
O315        H338   0.966       .  S
C316        O333   1.279       .  A
C316        O325   1.281       .  A
C316        C445   1.490       .  S
O317       Ni336   1.917   1_554  S
O317        C323   1.271       .  A
O318       Ni336   1.914       .  S
O318        C320   1.269       .  A
Ni319       O322   1.911       .  S
Ni319       O324   1.917       .  S
C320        O330   1.274       .  A
C320        C574   1.503       .  S
O321       Ni337   1.941       .  S
O321        C327   1.285       .  A
O322        C327   1.275       .  A
C323        C546   1.492       .  S
O324        C326   1.271       .  A
O325       Ni336   1.933       .  S
C326        O332   1.275       .  A
C326        C924   1.503       .  S
C327        C459   1.510       .  S
H328        O329   0.966       .  S
O329       Ni337   1.926   1_556  S
O329       Ni331   1.892       .  S
O329       Ni336   1.891       .  S
O330       Ni331   1.946       .  S
Ni331       O335   1.901       .  S
Ni331       O333   1.921       .  S
O332       Ni337   1.948       .  S
C334        O335   1.266       .  A
C334        C742   1.475       .  S
O339       Ni345   1.921       .  S
O339        C360   1.270       .  A
O340       Ni363   1.904       .  S
O340        C349   1.269       .  A
O341       Ni345   1.894       .  S
O341       Ni363   1.895       .  S
O341       Ni357   1.914       .  S
O341        H364   0.966       .  S
C342        O359   1.279       .  A
C342        O351   1.278       .  A
C342        C448   1.494       .  S
O343       Ni362   1.928       .  S
O343        C349   1.272       .  A
O344       Ni362   1.913       .  S
O344        C346   1.268       .  A
Ni345       O348   1.918       .  S
Ni345       O350   1.915       .  S
C346        O356   1.274       .  A
C346        C490   1.492       .  S
O347       Ni363   1.932       .  S
O347        C353   1.281       .  A
O348        C353   1.279       .  A
C349        C630   1.489       .  S
O350        C352   1.270       .  A
O351       Ni362   1.922       .  S
C352        O358   1.277       .  A
C352        C812   1.511       .  S
C353        C462   1.490       .  S
H354        O355   0.966       .  S
O355       Ni363   1.919       .  S
O355       Ni357   1.899       .  S
O355       Ni362   1.902       .  S
O356       Ni357   1.941       .  S
Ni357       O361   1.904       .  S
Ni357       O359   1.931       .  S
O358       Ni363   1.951       .  S
C360        O361   1.266       .  A
C360        C854   1.469       .  S
O365       Ni371   1.926       .  S
O365        C386   1.269       .  A
O366       Ni389   1.917   1_655  S
O366        C375   1.268       .  A
O367       Ni371   1.906       .  S
O367       Ni389   1.901       .  S
O367       Ni383   1.914       .  S
O367        H390   0.965       .  S
C368        O385   1.277       .  A
C368        O377   1.273   1_455  A
C368        C420   1.484       .  S
O369       Ni388   1.933       .  S
O369        C375   1.271       .  A
O370       Ni388   1.900       .  S
O370        C372   1.270       .  A
Ni371       O374   1.924       .  S
Ni371       O376   1.902       .  S
C372        O382   1.275       .  A
C372        C616   1.484       .  S
O373       Ni389   1.925   1_655  S
O373        C379   1.279   1_655  A
O374        C379   1.278       .  A
C375        C529   1.492       .  S
O376        C378   1.267       .  A
O377       Ni388   1.918       .  S
C378        O384   1.271       .  A
C378        C907   1.479       .  S
C379        C431   1.507       .  S
H380        O381   0.966       .  S
O381       Ni389   1.914       .  S
O381       Ni383   1.925       .  S
O381       Ni388   1.911   1_455  S
O382       Ni383   1.941   1_655  S
Ni383       O387   1.930       .  S
Ni383       O385   1.923       .  S
O384       Ni389   1.927       .  S
C386        O387   1.274       .  A
C386        C798   1.489       .  S
O391       Ni397   1.921       .  S
O391        C412   1.267       .  A
O392       Ni415   1.918       .  S
O392        C401   1.273       .  A
O393       Ni397   1.901       .  S
O393       Ni415   1.900   1_455  S
O393       Ni409   1.904       .  S
O393        H416   0.966   1_455  S
C394        O411   1.270   1_655  A
C394        O403   1.277       .  A
C394        C434   1.498       .  S
O395       Ni414   1.936       .  S
O395        C401   1.274       .  A
O396       Ni414   1.903       .  S
O396        C398   1.268       .  A
Ni397       O400   1.910       .  S
Ni397       O402   1.902       .  S
C398        O408   1.275       .  A
C398        C560   1.483       .  S
O399       Ni415   1.938       .  S
O399        C405   1.285   1_655  A
O400        C405   1.276       .  A
C401        C473   1.494       .  S
O402        C404   1.268       .  A
O403       Ni414   1.940       .  S
C404        O410   1.275       .  A
C404        C840   1.495       .  S
C405        C417   1.492       .  S
H406        O407   0.966   1_455  S
O407       Ni415   1.928       .  S
O407       Ni409   1.919   1_655  S
O407       Ni414   1.917       .  S
O408       Ni409   1.944   1_655  S
Ni409       O413   1.915       .  S
Ni409       O411   1.906       .  S
O410       Ni415   1.943   1_455  S
C412        O413   1.266       .  A
C412        C725   1.478       .  S
C417        C418   1.419       .  A
C417        C422   1.416       .  A
C418        C419   1.413       .  A
C418        C423   1.452       .  S
C419        C420   1.410       .  A
C419        C426   1.452       .  S
C420        C421   1.413       .  A
C421        C422   1.411       .  A
C421        C424   1.452       .  S
C422        C425   1.452       .  S
C423        N430   1.157   1_455  T
C424        N429   1.157       .  T
C425        N427   1.157       .  T
C426        N428   1.157       .  T
C431        C432   1.422   1_455  A
C431        C436   1.422       .  A
C432        C433   1.413   1_554  A
C432        C437   1.453       .  S
C433        C434   1.415       .  A
C433        C440   1.452       .  S
C434        C435   1.416   1_655  A
C435        C436   1.416   1_556  A
C435        C438   1.453       .  S
C436        C439   1.453       .  S
C437        N444   1.158       .  T
C438        N443   1.158       .  T
C439        N441   1.158       .  T
C440        N442   1.157       .  T
C445        C446   1.414       .  A
C445        C450   1.415       .  A
C446        C447   1.415       .  A
C446        C451   1.451       .  S
C447        C448   1.415       .  A
C447        C454   1.451       .  S
C448        C449   1.416       .  A
C449        C450   1.411       .  A
C449        C452   1.452       .  S
C450        C453   1.452       .  S
C451        N458   1.157       .  T
C452        N457   1.157       .  T
C453        N455   1.157       .  T
C454        N456   1.157       .  T
C459        C460   1.428       .  A
C459        C464   1.422       .  A
C460        C461   1.408       .  A
C460        C465   1.454       .  S
C461        C462   1.412       .  A
C461        C468   1.456       .  S
C462        C463   1.412       .  A
C463        C464   1.418       .  A
C463        C466   1.450       .  S
C464        C467   1.450       .  S
C465        N472   1.158       .  T
C466        N471   1.157       .  T
C467        N469   1.157       .  T
C468        N470   1.157       .  T
C473        C474   1.414       .  A
C473        C478   1.416       .  A
C474        C475   1.416       .  A
C474        C479   1.451       .  S
C475        C476   1.416       .  A
C475        C482   1.451       .  S
C476        C477   1.416       .  A
C477        C478   1.414       .  A
C477        C480   1.452       .  S
C478        C481   1.452       .  S
C479        N486   1.157       .  T
C480        N485   1.158       .  T
C481        N483   1.157       .  T
C482        N484   1.157       .  T
C487        C488   1.413       .  A
C487        C492   1.410       .  A
C488        C489   1.416       .  A
C488        C493   1.449       .  S
C489        C490   1.413       .  A
C489        C496   1.450       .  S
C490        C491   1.416       .  A
C491        C492   1.414       .  A
C491        C494   1.450       .  S
C492        C495   1.452       .  S
C493        N500   1.157       .  T
C494        N499   1.157       .  T
C495        N497   1.157       .  T
C496        N498   1.157       .  T
C501        C502   1.419       .  A
C501        C506   1.417       .  A
C502        C503   1.415       .  A
C502        C507   1.452       .  S
C503        C504   1.417       .  A
C503        C510   1.451       .  S
C504        C505   1.418       .  A
C505        C506   1.415       .  A
C505        C508   1.453       .  S
C506        C509   1.450       .  S
C507        N514   1.157       .  T
C508        N513   1.158       .  T
C509        N511   1.157       .  T
C510        N512   1.157       .  T
C515        C516   1.415       .  A
C515        C520   1.418       .  A
C516        C517   1.412       .  A
C516        C521   1.452       .  S
C517        C518   1.417       .  A
C517        C524   1.452       .  S
C518        C519   1.411       .  A
C519        C520   1.412       .  A
C519        C522   1.452       .  S
C520        C523   1.452       .  S
C521        N528   1.158       .  T
C522        N527   1.157       .  T
C523        N525   1.157       .  T
C524        N526   1.157       .  T
C529        C530   1.413       .  A
C529        C534   1.414       .  A
C530        C531   1.413       .  A
C530        C535   1.452       .  S
C531        C532   1.417       .  A
C531        C538   1.451       .  S
C532        C533   1.417       .  A
C533        C534   1.418       .  A
C533        C536   1.451       .  S
C534        C537   1.451       .  S
C535        N542   1.157       .  T
C536        N541   1.158       .  T
C537        N539   1.157       .  T
C538        N540   1.157       .  T
C543        C544   1.408       .  A
C543        C548   1.411       .  A
C544        C545   1.405       .  A
C544        C549   1.452   1_554  S
C545        C546   1.417       .  A
C545        C552   1.453   1_554  S
C546        C547   1.417       .  A
C547        C548   1.419       .  A
C547        C550   1.449       .  S
C548        C551   1.450       .  S
C549        N556   1.157       .  T
C550        N555   1.157       .  T
C551        N553   1.157       .  T
C552        N554   1.157       .  T
C557        C558   1.411       .  A
C557        C562   1.413       .  A
C558        C559   1.412       .  A
C558        C563   1.451       .  S
C559        C560   1.413       .  A
C559        C566   1.449       .  S
C560        C561   1.411       .  A
C561        C562   1.411       .  A
C561        C564   1.451       .  S
C562        C565   1.451       .  S
C563        N570   1.157       .  T
C564        N569   1.157       .  T
C565        N567   1.157       .  T
C566        N568   1.157       .  T
C571        C572   1.422       .  A
C571        C576   1.423       .  A
C572        C573   1.411       .  A
C572        C577   1.454       .  S
C573        C574   1.413       .  A
C573        C580   1.453       .  S
C574        C575   1.416       .  A
C575        C576   1.428       .  A
C575        C578   1.449   1_556  S
C576        C579   1.449   1_556  S
C577        N584   1.157       .  T
C578        N583   1.157       .  T
C579        N581   1.158       .  T
C580        N582   1.157       .  T
C585        C586   1.415       .  A
C585        C590   1.417       .  A
C586        C587   1.414       .  A
C586        C591   1.451       .  S
C587        C588   1.418       .  A
C587        C594   1.452       .  S
C588        C589   1.415       .  A
C589        C590   1.415       .  A
C589        C592   1.451       .  S
C590        C593   1.452       .  S
C591        N598   1.157       .  T
C592        N597   1.157       .  T
C593        N595   1.157       .  T
C594        N596   1.157       .  T
C599        C600   1.418       .  A
C599        C604   1.413       .  A
C600        C601   1.412       .  A
C600        C605   1.452       .  S
C601        C602   1.410       .  A
C601        C608   1.451       .  S
C602        C603   1.416       .  A
C603        C604   1.412       .  A
C603        C606   1.453       .  S
C604        C607   1.451       .  S
C605        N612   1.157       .  T
C606        N611   1.157       .  T
C607        N609   1.157       .  T
C608        N610   1.157       .  T
C613        C614   1.412       .  A
C613        C618   1.411       .  A
C614        C615   1.414       .  A
C614        C619   1.451       .  S
C615        C616   1.414       .  A
C615        C622   1.449       .  S
C616        C617   1.415       .  A
C617        C618   1.406       .  A
C617        C620   1.453       .  S
C618        C621   1.453       .  S
C619        N626   1.157       .  T
C620        N625   1.157       .  T
C621        N623   1.157       .  T
C622        N624   1.157       .  T
C627        C628   1.408       .  A
C627        C632   1.411       .  A
C628        C629   1.410       .  A
C628        C633   1.452       .  S
C629        C630   1.420       .  A
C629        C636   1.452       .  S
C630        C631   1.416       .  A
C631        C632   1.408       .  A
C631        C634   1.450       .  S
C632        C635   1.453       .  S
C633        N640   1.157       .  T
C634        N639   1.157       .  T
C635        N637   1.157       .  T
C636        N638   1.157       .  T
C641        C642   1.418       .  A
C641        C646   1.413       .  A
C642        C643   1.404       .  A
C642        C647   1.453       .  S
C643        C644   1.408       .  A
C643        C650   1.454       .  S
C644        C645   1.412       .  A
C645        C646   1.414       .  A
C645        C648   1.450       .  S
C646        C649   1.449       .  S
C647        N654   1.157       .  T
C648        N653   1.157       .  T
C649        N651   1.157       .  T
C650        N652   1.157       .  T
C655        C656   1.412       .  A
C655        C660   1.412       .  A
C656        C657   1.413       .  A
C656        C661   1.451       .  S
C657        C658   1.415       .  A
C657        C664   1.451       .  S
C658        C659   1.414       .  A
C659        C660   1.415       .  A
C659        C662   1.450       .  S
C660        C663   1.450       .  S
C661        N668   1.157       .  T
C662        N667   1.157       .  T
C663        N665   1.157       .  T
C664        N666   1.157       .  T
C669        C670   1.411       .  A
C669        C674   1.411       .  A
C670        C671   1.408       .  A
C670        C675   1.455   1_565  S
C671        C672   1.423       .  A
C671        C678   1.454   1_565  S
C672        C673   1.418       .  A
C673        C674   1.416       .  A
C673        C676   1.446       .  S
C674        C677   1.451       .  S
C675        N682   1.158       .  T
C676        N681   1.156       .  T
C677        N679   1.157       .  T
C678        N680   1.158       .  T
C683        C684   1.417       .  A
C683        C688   1.419       .  A
C684        C685   1.419       .  A
C684        C689   1.451       .  S
C685        C686   1.417       .  A
C685        C692   1.449       .  S
C686        C687   1.416       .  A
C687        C688   1.407       .  A
C687        C690   1.454       .  S
C688        C691   1.454       .  S
C689        N696   1.158       .  T
C690        N695   1.158       .  T
C691        N693   1.158       .  T
C692        N694   1.157       .  T
C697        C698   1.419       .  A
C697        C702   1.421       .  A
C698        C699   1.424       .  A
C698        C703   1.451       .  S
C699        C700   1.426       .  A
C699        C706   1.451       .  S
C700        C701   1.430       .  A
C701        C702   1.412       .  A
C701        C704   1.457       .  S
C702        C705   1.456       .  S
C703        N710   1.157       .  T
C704        N709   1.158       .  T
C705        N707   1.157       .  T
C706        N708   1.158       .  T
C711        C712   1.408       .  A
C711        C716   1.409       .  A
C712        C713   1.410       .  A
C712        C717   1.452       .  S
C713        C714   1.421       .  A
C713        C720   1.451       .  S
C714        C715   1.422       .  A
C715        C716   1.411       .  A
C715        C718   1.452       .  S
C716        C719   1.452       .  S
C717        N724   1.157   1_545  T
C718        N723   1.158       .  T
C719        N721   1.157   1_554  T
C720        N722   1.157       .  T
C725        C726   1.409       .  A
C725        C730   1.408       .  A
C726        C727   1.414       .  A
C726        C731   1.451       .  S
C727        C728   1.421       .  A
C727        C734   1.450       .  S
C728        C729   1.420       .  A
C729        C730   1.409       .  A
C729        C732   1.452       .  S
C730        C733   1.452       .  S
C731        N738   1.157       .  T
C732        N737   1.157       .  T
C733        N735   1.157       .  T
C734        N736   1.157       .  T
C739        C740   1.416       .  A
C739        C744   1.419       .  A
C740        C741   1.408       .  A
C740        C745   1.451   1_556  S
C741        C742   1.410       .  A
C741        C748   1.453   1_556  S
C742        C743   1.408       .  A
C743        C744   1.409       .  A
C743        C746   1.451       .  S
C744        C747   1.453       .  S
C745        N752   1.157       .  T
C746        N751   1.157       .  T
C747        N749   1.157       .  T
C748        N750   1.157       .  T
C753        C754   1.423       .  A
C753        C758   1.418       .  A
C754        C755   1.413       .  A
C754        C759   1.451       .  S
C755        C756   1.408       .  A
C755        C762   1.452       .  S
C756        C757   1.412       .  A
C757        C758   1.410       .  A
C757        C760   1.451       .  S
C758        C761   1.453       .  S
C759        N766   1.157       .  T
C760        N765   1.157       .  T
C761        N763   1.158       .  T
C762        N764   1.157       .  T
C767        C768   1.422       .  A
C767        C772   1.416       .  A
C768        C769   1.414       .  A
C768        C773   1.452       .  S
C769        C770   1.412       .  A
C769        C776   1.452       .  S
C770        C771   1.419       .  A
C771        C772   1.414       .  A
C771        C774   1.453       .  S
C772        C775   1.451       .  S
C773        N780   1.157       .  T
C774        N779   1.157       .  T
C775        N777   1.157       .  T
C776        N778   1.158       .  T
C781        C782   1.416       .  A
C781        C786   1.416       .  A
C782        C783   1.416       .  A
C782        C787   1.452       .  S
C783        C784   1.417       .  A
C783        C790   1.451       .  S
C784        C785   1.416       .  A
C785        C786   1.415       .  A
C785        C788   1.452       .  S
C786        C789   1.452       .  S
C787        N794   1.158       .  T
C788        N793   1.157       .  T
C789        N791   1.157       .  T
C790        N792   1.157       .  T
C795        C796   1.420       .  A
C795        C800   1.420       .  A
C796        C797   1.417       .  A
C796        C801   1.451       .  S
C797        C798   1.411       .  A
C797        C804   1.451       .  S
C798        C799   1.410       .  A
C799        C800   1.416       .  A
C799        C802   1.451       .  S
C800        C803   1.450       .  S
C801        N808   1.157       .  T
C802        N807   1.157       .  T
C803        N805   1.157       .  T
C804        N806   1.157       .  T
C809        C810   1.412       .  A
C809        C814   1.412       .  A
C810        C811   1.421       .  A
C810        C815   1.449       .  S
C811        C812   1.419       .  A
C811        C818   1.450       .  S
C812        C813   1.419       .  A
C813        C814   1.420       .  A
C813        C816   1.449       .  S
C814        C817   1.451       .  S
C815        N822   1.157       .  T
C816        N821   1.156       .  T
C817        N819   1.157       .  T
C818        N820   1.157       .  T
C823        C824   1.415       .  A
C823        C828   1.411       .  A
C824        C825   1.419       .  A
C824        C829   1.450       .  S
C825        C826   1.416       .  A
C825        C832   1.449       .  S
C826        C827   1.417       .  A
C827        C828   1.410       .  A
C827        C830   1.453       .  S
C828        C831   1.452       .  S
C829        N836   1.157       .  T
C830        N835   1.157       .  T
C831        N833   1.157       .  T
C832        N834   1.157       .  T
C837        C838   1.423       .  A
C837        C842   1.422       .  A
C838        C839   1.421       .  A
C838        C843   1.450       .  S
C839        C840   1.412       .  A
C839        C846   1.450       .  S
C840        C841   1.415       .  A
C841        C842   1.410       .  A
C841        C844   1.454       .  S
C842        C845   1.454       .  S
C843        N850   1.157       .  T
C844        N849   1.157       .  T
C845        N847   1.158       .  T
C846        N848   1.157       .  T
C851        C852   1.416       .  A
C851        C856   1.418       .  A
C852        C853   1.406       .  A
C852        C857   1.452       .  S
C853        C854   1.407       .  A
C853        C860   1.452       .  S
C854        C855   1.409       .  A
C855        C856   1.409       .  A
C855        C858   1.452       .  S
C856        C859   1.452       .  S
C857        N864   1.157       .  T
C858        N863   1.157       .  T
C859        N861   1.158       .  T
C860        N862   1.157       .  T
C865        C866   1.414       .  A
C865        C870   1.411       .  A
C866        C867   1.410       .  A
C866        C871   1.453       .  S
C867        C868   1.415       .  A
C867        C874   1.450       .  S
C868        C869   1.417       .  A
C869        C870   1.409       .  A
C869        C872   1.452       .  S
C870        C873   1.451       .  S
C871        N878   1.157       .  T
C872        N877   1.157       .  T
C873        N875   1.157       .  T
C874        N876   1.157       .  T
C879        C880   1.412       .  A
C879        C884   1.417       .  A
C880        C881   1.413       .  A
C880        C885   1.451       .  S
C881        C882   1.415       .  A
C881        C888   1.451       .  S
C882        C883   1.414       .  A
C883        C884   1.414       .  A
C883        C886   1.452       .  S
C884        C887   1.452       .  S
C885        N892   1.157       .  T
C886        N891   1.157       .  T
C887        N889   1.157       .  T
C888        N890   1.157       .  T
C893        C894   1.417       .  A
C893        C898   1.416       .  A
C894        C895   1.417       .  A
C894        C899   1.451       .  S
C895        C896   1.414       .  A
C895        C902   1.451       .  S
C896        C897   1.415       .  A
C897        C898   1.414       .  A
C897        C900   1.452       .  S
C898        C901   1.450       .  S
C899        N906   1.157       .  T
C900        N905   1.157       .  T
C901        N903   1.157       .  T
C902        N904   1.157       .  T
C907        C908   1.411       .  A
C907        C912   1.411       .  A
C908        C909   1.406       .  A
C908        C913   1.453       .  S
C909        C910   1.415       .  A
C909        C916   1.453       .  S
C910        C911   1.417       .  A
C911        C912   1.415       .  A
C911        C914   1.450       .  S
C912        C915   1.450       .  S
C913        N920   1.157       .  T
C914        N919   1.157       .  T
C915        N917   1.157       .  T
C916        N918   1.157       .  T
C921        C922   1.409       .  A
C921        C926   1.415       .  A
C922        C923   1.410       .  A
C922        C927   1.452       .  S
C923        C924   1.415       .  A
C923        C930   1.447       .  S
C924        C925   1.418       .  A
C925        C926   1.423       .  A
C925        C928   1.449   1_554  S
C926        C929   1.450   1_554  S
C927        N934   1.157       .  T
C928        N933   1.157       .  T
C929        N931   1.157       .  T
C930        N932   1.155       .  T
C935        C936   1.411       .  A
C935        C940   1.412       .  A
C936        C937   1.416       .  A
C936        C941   1.449       .  S
C937        C938   1.414       .  A
C937        C944   1.448   1_554  S
C938        C939   1.416       .  A
C939        C940   1.411       .  A
C939        C942   1.452       .  S
C940        C943   1.452       .  S
C941        N948   1.157   1_554  T
C942        N947   1.157       .  T
C943        N945   1.157       .  T
C944        N946   1.157       .  T
C949        C950   1.417       .  A
C949        C954   1.414       .  A
C950        C951   1.413       .  A
C950        C955   1.452       .  S
C951        C952   1.412       .  A
C951        C958   1.451       .  S
C952        C953   1.415       .  A
C953        C954   1.416       .  A
C953        C956   1.450       .  S
C954        C957   1.450       .  S
C955        N962   1.157       .  T
C956        N961   1.157       .  T
C957        N959   1.157       .  T
C958        N960   1.157       .  T
C963        C964   1.418       .  A
C963        C968   1.420       .  A
C964        C965   1.415       .  A
C964        C969   1.451       .  S
C965        C966   1.413       .  A
C965        C972   1.452       .  S
C966        C967   1.411       .  A
C967        C968   1.412       .  A
C967        C970   1.452       .  S
C968        C971   1.452       .  S
C969        N976   1.158       .  T
C970        N975   1.157       .  T
C971        N973   1.157       .  T
C972        N974   1.157       .  T
C977        C978   1.418       .  A
C977        C982   1.416       .  A
C978        C979   1.409       .  A
C978        C983   1.452       .  S
C979        C980   1.408       .  A
C979        C986   1.452       .  S
C980        C981   1.409       .  A
C981        C982   1.412       .  A
C981        C984   1.451       .  S
C982        C985   1.451       .  S
C983        N990   1.157       .  T
C984        N989   1.157       .  T
C985        N987   1.157       .  T
C986        N988   1.157       .  T
C991        C992   1.411       .  A
C991        C996   1.409       .  A
C992        C993   1.411       .  A
C992        C997   1.451       .  S
C993        C994   1.414       .  A
C993       C1000   1.450       .  S
C994        C995   1.417       .  A
C995        C996   1.409       .  A
C995        C998   1.453       .  S
C996        C999   1.451       .  S
C997       N1004   1.157       .  T
C998       N1003   1.158       .  T
C999       N1001   1.157       .  T
C1000      N1002   1.157       .  T
C1005      C1006   1.416       .  A
C1005      C1010   1.418   1_545  A
C1006      C1007   1.413   1_455  A
C1006      C1011   1.451       .  S
C1007      C1008   1.415       .  A
C1007      C1014   1.452       .  S
C1008      C1009   1.414   1_645  A
C1009      C1010   1.413       .  A
C1009      C1012   1.451       .  S
C1010      C1013   1.453       .  S
C1011      N1018   1.157       .  T
C1012      N1017   1.157       .  T
C1013      N1015   1.158       .  T
C1014      N1016   1.157       .  T
C1019      C1020   1.411   1_455  A
C1019      C1024   1.416   1_545  A
C1020      C1021   1.415       .  A
C1020      C1025   1.451       .  S
C1021      C1022   1.420   1_656  A
C1021      C1028   1.451   1_556  S
C1022      C1023   1.414   1_544  A
C1023      C1024   1.414       .  A
C1023      C1026   1.451   1_556  S
C1024      C1027   1.452       .  S
C1025      N1032   1.157       .  T
C1026      N1031   1.157       .  T
C1027      N1029   1.157       .  T
C1028      N1030   1.157       .  T
C1033      C1034   1.413       .  A
C1033      C1038   1.411       .  A
C1034      C1035   1.415       .  A
C1034      C1039   1.451       .  S
C1035      C1036   1.415       .  A
C1035      C1042   1.450       .  S
C1036      C1037   1.414       .  A
C1037      C1038   1.408       .  A
C1037      C1040   1.452       .  S
C1038      C1041   1.452       .  S
C1039      N1046   1.157       .  T
C1040      N1045   1.157       .  T
C1041      N1043   1.157       .  T
C1042      N1044   1.157       .  T
C1047      C1048   1.417       .  A
C1047      C1052   1.420       .  A
C1048      C1049   1.413       .  A
C1048      C1053   1.451       .  S
C1049      C1050   1.412       .  A
C1049      C1056   1.451       .  S
C1050      C1051   1.410       .  A
C1051      C1052   1.410       .  A
C1051      C1054   1.453       .  S
C1052      C1055   1.452       .  S
C1053      N1060   1.157   1_655  T
C1054      N1059   1.157       .  T
C1055      N1057   1.157       .  T
C1056      N1058   1.157       .  T
C1061      C1062   1.421       .  A
C1061      C1066   1.418       .  A
C1062      C1063   1.424       .  A
C1062      C1067   1.450       .  S
C1063      C1064   1.414       .  A
C1063      C1070   1.450       .  S
C1064      C1065   1.415       .  A
C1065      C1066   1.412       .  A
C1065      C1068   1.453       .  S
C1066      C1069   1.453       .  S
C1067      N1074   1.157       .  T
C1068      N1073   1.157       .  T
C1069      N1071   1.158       .  T
C1070      N1072   1.157       .  T
C1075      C1076   1.418       .  A
C1075      C1080   1.419       .  A
C1076      C1077   1.412       .  A
C1076      C1081   1.452       .  S
C1077      C1078   1.411       .  A
C1077      C1084   1.452       .  S
C1078      C1079   1.408       .  A
C1079      C1080   1.412       .  A
C1079      C1082   1.451       .  S
C1080      C1083   1.451       .  S
C1081      N1088   1.158       .  T
C1082      N1087   1.157       .  T
C1083      N1085   1.157       .  T
C1084      N1086   1.157       .  T
