geometry optimzed in LAMMPS
_audit_creation_date              2020-11-30 
_audit_creation_method            'lammps2cif' 
_symmetry_space_group_name_H-M    'P1' 
_symmetry_Int_Tables_number       1 
_symmetry_cell_setting            triclinic 
loop_ 
_symmetry_equiv_pos_as_xyz 
  x,y,z 
_cell_length_a                    32.76546027 
_cell_length_b                    32.84644660109154 
_cell_length_c                    46.817460093547005 
_cell_angle_alpha                 89.50529936262355 
_cell_angle_beta                  90.48067713628437 
_cell_angle_gamma                 120.00012175765012 
loop_ 
_atom_site_label 
_atom_site_type_symbol 
_atom_site_fract_x 
_atom_site_fract_y 
_atom_site_fract_z 
_atom_site_charge 
Fe1        Fe  0.19730436  0.73593983  0.07716558     1.65800
Fe2        Fe  0.26339254  0.80221859  0.13107409     1.73200
Fe3        Fe  0.17857060  0.82040419  0.10333165     1.54400
O4          O  0.17001159  0.81618910  0.05839856    -0.81900
O5          O  0.21831116  0.78961568  0.16400922    -0.80200
O6          O  0.20846265  0.78016959  0.04381655    -0.84400
O7          O  0.12562330  0.71426621  0.07668551    -0.79200
O8          O  0.24021876  0.88379754  0.09896161    -0.81000
O9          O  0.25033406  0.73308820  0.13457227    -0.83800
C10         C  0.09883670  0.72399369  0.09106541     0.97000
C11         C  0.18523337  0.80071151  0.03862522     1.04400
O12         O  0.21280234  0.78616296  0.10390770    -1.12700
O13         O  0.31084033  0.81588609  0.09899327    -0.75200
O14         O  0.26704492  0.75095708  0.07379216    -0.78700
O15         O  0.11478070  0.75921126  0.10756202    -0.79400
C16         C  0.30690699  0.78526597  0.08121537     0.95900
O17         O  0.18548984  0.68881489  0.10930634    -0.77300
O18         O  0.28377213  0.87311282  0.13165919    -0.82500
C19         C  0.19355289  0.80876484  0.16829044     0.98500
C20         C  0.27502955  0.89973748  0.11607434     1.04400
O21         O  0.18161283  0.82751421  0.14827753    -0.78200
C22         C  0.21686667  0.69293561  0.12690808     1.02700
Fe23       Fe  0.19278833  0.73446348  0.32687782     1.65800
Fe24       Fe  0.25717149  0.79870631  0.38226452     1.73200
Fe25       Fe  0.17466745  0.81948885  0.35340590     1.54400
O26         O  0.16957176  0.81856084  0.30840248    -0.81900
O27         O  0.21089964  0.78623473  0.41437663    -0.80200
O28         O  0.20501689  0.77948017  0.29378573    -0.84400
O29         O  0.12113674  0.71257838  0.32604628    -0.79200
O30         O  0.23620943  0.88222248  0.35092564    -0.81000
O31         O  0.24218337  0.72899806  0.38579903    -0.83800
C32         C  0.09472100  0.72349158  0.33983815     0.97000
C33         C  0.18515838  0.80339060  0.28869505     1.04400
O34         O  0.20801133  0.78423952  0.35416948    -1.12700
O35         O  0.30581384  0.81185219  0.35119811    -0.75200
O36         O  0.26242166  0.74910240  0.32414308    -0.78700
O37         O  0.11073771  0.75924981  0.35580631    -0.79400
C38         C  0.30215585  0.78209054  0.33285457     0.95900
O39         O  0.17971096  0.68616559  0.35821602    -0.77300
O40         O  0.27951007  0.87023157  0.38308582    -0.82500
C41         C  0.18602082  0.80528022  0.41844162     0.98500
C42         C  0.27059382  0.89748135  0.36824837     1.04400
O43         O  0.17465810  0.82434296  0.39836015    -0.78200
C44         C  0.20958169  0.68949216  0.37667647     1.02700
Fe45       Fe  0.27012779  0.46505605  0.16205156     1.65800
Fe46       Fe  0.19668075  0.46175503  0.21230071     1.73200
Fe47       Fe  0.18503318  0.36045085  0.18677597     1.54400
O48         O  0.19249112  0.35832463  0.14193918    -0.81900
O49         O  0.20266634  0.42786941  0.24737577    -0.80200
O50         O  0.22899295  0.43331379  0.12745810    -0.84400
O51         O  0.29249663  0.41585064  0.16241211    -0.79200
O52         O  0.12047177  0.35495782  0.18035816    -0.81000
O53         O  0.26581765  0.51638570  0.21928309    -0.83800
C54         C  0.28272694  0.37978559  0.17747028     0.97000
C55         C  0.20840993  0.38967700  0.12221718     1.04400
O56         O  0.21701201  0.42876036  0.18717053    -1.12700
O57         O  0.18863964  0.49784718  0.17893589    -0.75200
O58         O  0.25665363  0.52061497  0.15732556    -0.78700
O59         O  0.24698490  0.36056376  0.19352445    -0.79400
C60         C  0.22202388  0.52639064  0.16311034     0.95900
O61         O  0.31327433  0.49798609  0.19593349    -0.77300
O62         O  0.12554438  0.41157182  0.20861498    -0.82500
C63         C  0.18596237  0.38425455  0.25164128     0.98500
C64         C  0.10151667  0.37401559  0.19437936     1.04400
O65         O  0.17443045  0.35458708  0.23138714    -0.78200
C66         C  0.30686475  0.52340834  0.21343661     1.02700
Fe67       Fe  0.20185282  0.46417682  0.46552795     1.65800
Fe68       Fe  0.26417073  0.46530487  0.40846716     1.73200
Fe69       Fe  0.18221203  0.36193751  0.43745494     1.54400
O70         O  0.17922564  0.35692851  0.48238583    -0.81900
O71         O  0.21821075  0.43073978  0.37576121    -0.80200
O72         O  0.21673820  0.43110689  0.49745275    -0.84400
O73         O  0.13024111  0.41413340  0.46710134    -0.79200
O74         O  0.24408712  0.36158521  0.43947636    -0.81000
O75         O  0.24672719  0.51854089  0.40533084    -0.83800
C76         C  0.10286107  0.37718350  0.45313507     0.97000
C77         C  0.19880766  0.38749308  0.00201671     1.04400
O78         O  0.21566737  0.43041269  0.43688749    -1.12700
O79         O  0.31416342  0.50236485  0.43914180    -0.75200
O80         O  0.27112456  0.51921017  0.46797358    -0.78700
O81         O  0.11788517  0.35787918  0.43610214    -0.79400
C82         C  0.31076133  0.52716617  0.45851660     0.95900
O83         O  0.18727424  0.50009718  0.43533875    -0.77300
O84         O  0.28779480  0.41673382  0.40771859    -0.82500
C85         C  0.19399652  0.38672959  0.37196883     0.98500
C86         C  0.27855264  0.38033535  0.42242298     1.04400
O87         O  0.18116805  0.35706247  0.39249737    -0.78200
C88         C  0.21489249  0.52553912  0.41575760     1.02700
Fe89       Fe  0.53762069  0.80404773  0.49478539     1.65800
Fe90       Fe  0.53756025  0.73804351  0.04982043     1.73200
Fe91       Fe  0.64111423  0.82413671  0.02339833     1.54400
O92         O  0.64604158  0.82899043  0.47843113    -0.81900
O93         O  0.57072591  0.78169281  0.08344781    -0.80200
O94         O  0.57166499  0.79240910  0.46244771    -0.84400
O95         O  0.58697853  0.87527716  0.49385415    -0.79200
O96         O  0.64474921  0.76391781  0.02105028    -0.81000
O97         O  0.48341012  0.75339368  0.05334203    -0.83800
C98         C  0.62331065  0.90238007  0.00850825     0.97000
C99         C  0.61555427  0.81015970  0.45845700     1.04400
O100        O  0.57232520  0.78893865  0.02282978    -1.12700
O101        O  0.50161878  0.69060296  0.01784470    -0.75200
O102        O  0.48303540  0.73507408  0.49096249    -0.78700
O103        O  0.64277989  0.88722381  0.02567379    -0.79400
C104        C  0.47578122  0.69502328  0.49915124     0.95900
O105        O  0.50102496  0.81579529  0.02613779    -0.77300
O106        O  0.58665676  0.71573130  0.04995233    -0.82500
C107        C  0.61424265  0.80917481  0.08810468     0.98500
C108        C  0.62369114  0.72660695  0.03580471     1.04400
O109        O  0.64515052  0.82385739  0.06838561    -0.78200
C110        C  0.47523257  0.78548614  0.04466333     1.02700
Fe111      Fe  0.53173714  0.80347314  0.24804846     1.65800
Fe112      Fe  0.53418188  0.73557301  0.30100856     1.73200
Fe113      Fe  0.63635096  0.82117529  0.27342586     1.54400
O114        O  0.63920974  0.82980419  0.22851354    -0.81900
O115        O  0.56871010  0.77856597  0.33445673    -0.80200
O116        O  0.56446407  0.79557049  0.21343497    -0.84400
O117        O  0.58060907  0.87471784  0.24895694    -0.79200
O118        O  0.63861215  0.75980334  0.26833796    -0.81000
O119        O  0.47901362  0.74920191  0.30633548    -0.83800
C120        C  0.61746879  0.90080483  0.26342310     0.97000
C121        C  0.60833628  0.81589289  0.20855150     1.04400
O122        O  0.56766114  0.78681662  0.27406877    -1.12700
O123        O  0.49781934  0.68949650  0.26895612    -0.75200
O124        O  0.47734240  0.73406740  0.24355160    -0.78700
O125        O  0.63851364  0.88465555  0.27860244    -0.79400
C126        C  0.47080886  0.69399773  0.25132385     0.95900
O127        O  0.49679612  0.81318399  0.28090034    -0.77300
O128        O  0.58368635  0.71380233  0.29964714    -0.82500
C129        C  0.61284559  0.80170757  0.33863763     0.98500
C130        C  0.61901674  0.72332626  0.28411161     1.04400
O131        O  0.64254716  0.81711686  0.31820902    -0.78200
C132        C  0.47089181  0.78175725  0.29871259     1.02700
Fe133      Fe  0.80115386  0.26127663  0.20119464     1.65800
Fe134      Fe  0.74138693  0.20256684  0.26036222     1.73200
Fe135      Fe  0.81909435  0.17605671  0.23024800     1.54400
O136        O  0.81648805  0.16966372  0.18536175    -0.81900
O137        O  0.78952306  0.21406966  0.29162654    -0.80200
O138        O  0.78731720  0.21418542  0.16942596    -0.84400
O139        O  0.87290291  0.28311059  0.19989830    -0.79200
O140        O  0.75637162  0.11428402  0.23190992    -0.81000
O141        O  0.75967331  0.27284768  0.26269273    -0.83800
C142        C  0.89990684  0.27042945  0.21178030     0.97000
C143        C  0.79995701  0.18406598  0.16543701     1.04400
O144        O  0.78750292  0.21350902  0.23062783    -1.12700
O145        O  0.69001497  0.19104321  0.23110452    -0.75200
O146        O  0.73132039  0.24559247  0.19814536    -0.78700
O147        O  0.88466786  0.23454112  0.22787009    -0.79400
C148        C  0.69254202  0.21647046  0.20990869     0.95900
O149        O  0.81506281  0.31307558  0.23023524    -0.77300
O150        O  0.71490255  0.13015832  0.26265860    -0.82500
C151        C  0.81551309  0.19608734  0.29541803     0.98500
C152        C  0.72151121  0.10124900  0.24836740     1.04400
O153        O  0.82599683  0.17692216  0.27528946    -0.78200
C154        C  0.78911237  0.31119935  0.25069981     1.02700
Fe155      Fe  0.80659541  0.27002953  0.45427196     1.65800
Fe156      Fe  0.73297774  0.19886991  0.00431673     1.73200
Fe157      Fe  0.81911672  0.18074376  0.48044203     1.54400
O158        O  0.83173692  0.18792795  0.43584090    -0.81900
O159        O  0.77256352  0.20602411  0.03961202    -0.80200
O160        O  0.79974281  0.22991191  0.41963197    -0.84400
O161        O  0.87776596  0.29025615  0.45747134    -0.79200
O162        O  0.75766299  0.11864324  0.47316793    -0.81000
O163        O  0.74711202  0.26781979  0.00921467    -0.83800
C164        C  0.90185333  0.27697440  0.47222938     0.97000
C165        C  0.81993074  0.20612974  0.41540761     1.04400
O166        O  0.78649953  0.21650714  0.47970049    -1.12700
O167        O  0.69062141  0.19022976  0.47021495    -0.75200
O168        O  0.73769481  0.25703416  0.44739834    -0.78700
O169        O  0.88270412  0.24028347  0.48772412    -0.79400
C170        C  0.69669752  0.22304194  0.45327248     0.95900
O171        O  0.81515334  0.31354855  0.48752122    -0.77300
O172        O  0.71111708  0.12780257  0.00347361    -0.82500
C173        C  0.79381600  0.18342240  0.04494027     0.98500
C174        C  0.72171024  0.10196051  0.48909749     1.04400
O175        O  0.81050936  0.16922910  0.02520697    -0.78200
C176        C  0.78207240  0.30821873  0.00361131     1.02700
Fe177      Fe  0.72989892  0.53531814  0.03538226     1.65800
Fe178      Fe  0.79990734  0.53814388  0.08856869     1.73200
Fe179      Fe  0.81808699  0.63989294  0.05932259     1.54400
O180        O  0.81329518  0.64164780  0.01432225    -0.81900
O181        O  0.78963172  0.57282263  0.12084750    -0.80200
O182        O  0.77070217  0.56674121  0.00045360    -0.84400
O183        O  0.70824706  0.58469918  0.03513584    -0.79200
O184        O  0.88141102  0.64147225  0.05528406    -0.81000
O185        O  0.73111532  0.48348331  0.09391720    -0.83800
C186        C  0.72027654  0.62242870  0.04859806     0.97000
C187        C  0.79525070  0.61056612  0.49483112     1.04400
O188        O  0.78286255  0.57138928  0.06088517    -1.12700
O189        O  0.80999533  0.50118193  0.05716587    -0.75200
O190        O  0.74463760  0.48070427  0.03203675    -0.78700
O191        O  0.75768338  0.64349516  0.06334443    -0.79400
C192        C  0.77808427  0.47391169  0.03991389     0.95900
O193        O  0.68477205  0.50147372  0.06866799    -0.77300
O194        O  0.87127606  0.58763057  0.08789237    -0.82500
C195        C  0.80738935  0.61664328  0.12452447     0.98500
C196        C  0.89771551  0.62292054  0.07237973     1.04400
O197        O  0.82586045  0.64663688  0.10426020    -0.78200
C198        C  0.69037013  0.47573856  0.08672847     1.02700
Fe199      Fe  0.79707434  0.53614071  0.33759481     1.65800
Fe200      Fe  0.73034751  0.53295354  0.28206126     1.73200
Fe201      Fe  0.81147648  0.63700049  0.30919835     1.54400
O202        O  0.81931131  0.64259693  0.35406105    -0.81900
O203        O  0.77475995  0.56703105  0.24912617    -0.80200
O204        O  0.78407136  0.56869442  0.37018795    -0.84400
O205        O  0.86827955  0.58776286  0.33742304    -0.79200
O206        O  0.74875562  0.63606715  0.31324473    -0.81000
O207        O  0.74768268  0.47955554  0.27904418    -0.83800
C208        C  0.89341622  0.62420174  0.32227484     0.97000
C209        C  0.80223321  0.61242460  0.37427733     1.04400
O210        O  0.77973889  0.56876315  0.30960257    -1.12700
O211        O  0.68319068  0.49714151  0.31371943    -0.75200
O212        O  0.72820817  0.48001701  0.34137231    -0.78700
O213        O  0.87554683  0.64127401  0.30522899    -0.79400
C214        C  0.68792775  0.47216560  0.33271934     0.95900
O215        O  0.81071546  0.50120506  0.30673423    -0.77300
O216        O  0.70609670  0.58118320  0.28106518    -0.82500
C217        C  0.79452809  0.61077364  0.24425211     0.98500
C218        C  0.71393651  0.61637109  0.29627818     1.04400
O219        O  0.80759981  0.64103466  0.26424718    -0.78200
C220        C  0.78134633  0.47406319  0.28836984     1.02700
Fe221      Fe  0.46230444  0.19940495  0.11868244     1.65800
Fe222      Fe  0.46291203  0.26074290  0.17565978     1.73200
Fe223      Fe  0.35951496  0.17801370  0.14748372     1.54400
O224        O  0.35381293  0.17326933  0.10243793    -0.81900
O225        O  0.42966218  0.21452204  0.20827355    -0.80200
O226        O  0.42797202  0.21336444  0.08710234    -0.84400
O227        O  0.41264359  0.12777606  0.11727037    -0.79200
O228        O  0.35723261  0.23934760  0.14494518    -0.81000
O229        O  0.51742871  0.24529105  0.17834602    -0.83800
C230        C  0.37752094  0.10018044  0.13262105     0.97000
C231        C  0.38401817  0.19371716  0.08263349     1.04400
O232        O  0.42818612  0.21248199  0.14743933    -1.12700
O233        O  0.49829968  0.31074723  0.14486908    -0.75200
O234        O  0.51674295  0.26891679  0.11608922    -0.78700
O235        O  0.35832782  0.11498374  0.14995320    -0.79400
C236        C  0.52362298  0.30806888  0.12555510     0.95900
O237        O  0.49968110  0.18584755  0.14873822    -0.77300
O238        O  0.41323550  0.28243182  0.17672183    -0.82500
C239        C  0.38568745  0.19246763  0.21274765     0.98500
C240        C  0.37728608  0.27401905  0.16179476     1.04400
O241        O  0.35539405  0.17876089  0.19249633    -0.78200
C242        C  0.52518506  0.21391555  0.16817361     1.02700
Fe243      Fe  0.45899759  0.19367063  0.36967000     1.65800
Fe244      Fe  0.46292985  0.26629833  0.42063572     1.73200
Fe245      Fe  0.35763737  0.17781866  0.39805781     1.54400
O246        O  0.35006272  0.16775021  0.35335070    -0.81900
O247        O  0.43220221  0.22733249  0.45643161    -0.80200
O248        O  0.42355647  0.20168602  0.33631113    -0.84400
O249        O  0.40915705  0.12245535  0.37191692    -0.79200
O250        O  0.35373037  0.23766270  0.39264453    -0.81000
O251        O  0.51821076  0.25189027  0.42493528    -0.83800
C252        C  0.37292187  0.09752100  0.38704088     0.97000
C253        C  0.37944928  0.18330304  0.33274146     1.04400
O254        O  0.42619131  0.21237835  0.39625824    -1.12700
O255        O  0.49503882  0.30882884  0.38633872    -0.75200
O256        O  0.51419116  0.26227589  0.36309914    -0.78700
O257        O  0.35587652  0.11522478  0.40373985    -0.79400
C258        C  0.52137834  0.30299426  0.36930725     0.95900
O259        O  0.49617509  0.18499674  0.40195635    -0.77300
O260        O  0.41374462  0.28857967  0.41964486    -0.82500
C261        C  0.38859171  0.20319761  0.46212383     0.98500
C262        C  0.37492533  0.27548101  0.40674608     1.04400
O263        O  0.35683782  0.18436442  0.44281257    -0.78200
C264        C  0.52432409  0.21770554  0.41833606     1.02700
C265        C  0.37073956  0.18734326  0.24288139    -0.00400
C266        C  0.34962684  0.14323648  0.25646281    -0.12200
C267        C  0.34678578  0.13998436  0.28648564     0.01900
C268        C  0.36370307  0.18122618  0.30298243    -0.00500
C269        C  0.38014215  0.22444508  0.28911982    -0.12200
C270        C  0.38488907  0.22804509  0.25950151     0.01800
H271        H  0.33932973  0.11195116  0.24390685     0.14700
H272        H  0.39418036  0.25628693  0.30173049     0.14700
C273        C  0.40923129  0.27471119  0.24722085     0.36400
C274        C  0.33146088  0.09491122  0.29987508     0.36300
N275        N  0.42963287  0.31253093  0.23806131    -0.44000
N276        N  0.31942914  0.05867147  0.31039732    -0.44000
C277        C  0.36960346  0.19484581  0.05277700    -0.00400
C278        C  0.39218695  0.23851134  0.03884725    -0.12200
C279        C  0.39477492  0.24144421  0.00911881     0.01900
C280        C  0.37555484  0.20028765  0.49257999    -0.00500
C281        C  0.34775154  0.15642012  0.00625949    -0.12200
C282        C  0.34453553  0.15362134  0.03629412     0.01800
H283        H  0.41077250  0.27042664  0.05134251     0.14700
H284        H  0.33175421  0.12479587  0.49361717     0.14700
C285        C  0.31787661  0.10806211  0.04965086     0.36400
C286        C  0.41994026  0.28784667  0.49605689     0.36300
N287        N  0.29566522  0.07143843  0.06014874    -0.44000
N288        N  0.43964069  0.32482134  0.48566787    -0.44000
C289        C  0.64523397  0.43017257  0.34330448    -0.00400
C290        C  0.64738502  0.38905675  0.34799364    -0.12200
C291        C  0.60707844  0.34673785  0.35507550     0.01900
C292        C  0.56346977  0.34525514  0.35824389    -0.00500
C293        C  0.56143980  0.38659134  0.35389441    -0.12200
C294        C  0.60164836  0.42873466  0.34619850     0.10200
H295        H  0.68055706  0.38964800  0.34536595     0.14700
H296        H  0.52830052  0.38600818  0.35661587     0.14700
C297        C  0.59734654  0.47008409  0.34208760     0.36400
C298        C  0.61210458  0.30589199  0.35954725     0.36300
N299        N  0.59384728  0.50316119  0.33872480    -0.44000
N300        N  0.61640249  0.27327374  0.36284512    -0.44000
C301        C  0.80350627  0.62711546  0.40409908    -0.00400
C302        C  0.76026583  0.60985911  0.41796908    -0.12200
C303        C  0.75776137  0.60828217  0.44774352     0.01900
C304        C  0.79919654  0.62403225  0.46431987    -0.00500
C305        C  0.84304022  0.64549281  0.45055999    -0.12200
C306        C  0.84544052  0.64696882  0.42050729     0.01800
H307        H  0.72796027  0.59437139  0.40547420     0.14700
H308        H  0.87496547  0.65764549  0.46312293     0.14700
C309        C  0.89073103  0.66471136  0.40704166     0.36400
C310        C  0.71174214  0.58761380  0.46074212     0.36300
N311        N  0.92703824  0.67889181  0.39625006    -0.44000
N312        N  0.67473161  0.57093349  0.47093754    -0.44000
C313        C  0.80517882  0.63105235  0.15396606    -0.00400
C314        C  0.76096837  0.60736591  0.16706911    -0.12200
C315        C  0.75701497  0.60396085  0.19670218     0.01900
C316        C  0.79796335  0.62501762  0.21397468    -0.00500
C317        C  0.84193786  0.65348121  0.20109485    -0.12200
C318        C  0.84581005  0.65663177  0.17109756     0.01800
H319        H  0.72956498  0.58791112  0.15402186     0.14700
H320        H  0.87344606  0.67019219  0.21426541     0.14700
C321        C  0.89193172  0.68318732  0.15852862     0.36400
C322        C  0.71054571  0.57564002  0.20875485     0.36300
N323        N  0.92905216  0.70511361  0.14867388    -0.44000
N324        N  0.67325015  0.55267182  0.21820064    -0.44000
C325        C  0.64824823  0.43370687  0.09832311    -0.00400
C326        C  0.60531725  0.43354507  0.10027160    -0.12200
C327        C  0.56400352  0.39311742  0.10910366     0.01900
C328        C  0.56508876  0.35158253  0.11539025    -0.00500
C329        C  0.60777498  0.35171106  0.11345492    -0.12200
C330        C  0.64917811  0.39214505  0.10537071     0.01800
H331        H  0.60399284  0.46502867  0.09483051     0.14700
H332        H  0.60894293  0.32005760  0.11873031     0.14700
C333        C  0.69152280  0.38897879  0.10363958     0.36400
C334        C  0.52079559  0.39467128  0.11062873     0.36300
N335        N  0.72535335  0.38628146  0.10236155    -0.44000
N336        N  0.48617889  0.39592933  0.11186969    -0.44000
C337        C  0.77864677  0.43158016  0.02992037    -0.00400
C338        C  0.82203655  0.43288702  0.02788162    -0.12200
C339        C  0.82420918  0.39308484  0.52005462     0.01900
C340        C  0.78216260  0.35039876  0.01444452    -0.00500
C341        C  0.73875093  0.34883861  0.01701617    -0.12200
C342        C  0.73655842  0.38876393  0.02453237     0.01800
H343        H  0.85451168  0.46549552  0.53212919     0.14700
H344        H  0.70624873  0.31644024  0.01251938     0.14700
C345        C  0.69046559  0.38397699  0.02745876     0.36400
C346        C  0.86989720  0.39660993  0.51880348     0.36300
N347        N  0.65347740  0.37994400  0.02981032    -0.44000
N348        N  0.90651609  0.39944545  0.51783457    -0.44000
C349        C  0.56765675  0.21811816  0.42807339    -0.00400
C350        C  0.60926858  0.26168289  0.43104799    -0.12200
C351        C  0.65232559  0.26431455  0.43748019     0.01900
C352        C  0.65410274  0.22256739  0.44189843    -0.00500
C353        C  0.61244487  0.17902779  0.43891093    -0.12200
C354        C  0.56963380  0.17642366  0.43187839     0.01800
H355        H  0.60844647  0.29397555  0.42761200     0.14700
H356        H  0.61318151  0.14671476  0.44243844     0.14700
C357        C  0.52813096  0.13045465  0.42963347     0.36400
C358        C  0.69356902  0.31038687  0.44017454     0.36300
N359        N  0.49490116  0.09362062  0.42780473    -0.44000
N360        N  0.72653861  0.34738152  0.44215708    -0.44000
C361        C  0.83187540  0.20288033  0.38532701    -0.00400
C362        C  0.81469478  0.15909865  0.37200927    -0.12200
C363        C  0.81477606  0.15609262  0.34196303     0.01900
C364        C  0.83202839  0.19732813  0.32510083    -0.00500
C365        C  0.85411860  0.24107179  0.33870186    -0.12200
C366        C  0.85447409  0.24418745  0.36844894     0.01800
H367        H  0.79790364  0.12722745  0.38479414     0.14700
H368        H  0.86781615  0.27294135  0.32594283     0.14700
C369        C  0.87585398  0.29039633  0.38110912     0.36400
C370        C  0.79314160  0.11030062  0.32888763     0.36300
N371        N  0.89294832  0.32739257  0.39122487    -0.44000
N372        N  0.77608440  0.07358494  0.31840485    -0.44000
C373        C  0.79591156  0.16755110  0.13570065    -0.00400
C374        C  0.83710376  0.17958485  0.12019897    -0.12200
C375        C  0.83699611  0.18139036  0.09007752     0.01900
C376        C  0.79521481  0.17116203  0.07536641    -0.00500
C377        C  0.75322108  0.15403210  0.09088660    -0.12200
C378        C  0.75322894  0.15218537  0.12068509     0.01800
H379        H  0.87015694  0.19182380  0.13156082     0.14700
H380        H  0.72058588  0.14477104  0.07970224     0.14700
C381        C  0.70953268  0.13790485  0.13550500     0.36400
C382        C  0.88075687  0.19812391  0.07497791     0.36300
N383        N  0.67456852  0.12648086  0.14737941    -0.44000
N384        N  0.91577823  0.21150221  0.06276498    -0.44000
C385        C  0.79061113  0.35478840  0.25974522    -0.00400
C386        C  0.79701793  0.36690108  0.28867116    -0.12200
C387        C  0.79472886  0.40595542  0.29826182     0.01900
C388        C  0.78537861  0.43345800  0.27867651    -0.00500
C389        C  0.77810341  0.42073570  0.24978915    -0.12200
C390        C  0.78083325  0.38187569  0.24018825     0.01800
H391        H  0.80319444  0.34538843  0.30385424     0.14700
H392        H  0.77007402  0.44106344  0.23472592     0.14700
C393        C  0.77063485  0.36879911  0.21049478     0.36400
C394        C  0.79932781  0.41526670  0.32857334     0.36300
N395        N  0.76219330  0.35815342  0.18674901    -0.44000
N396        N  0.80283611  0.42258734  0.35286667    -0.44000
C397        C  0.64875207  0.21377176  0.19946397    -0.00400
C398        C  0.63802019  0.20780856  0.17024603    -0.12200
C399        C  0.59710516  0.20619407  0.15971521     0.01900
C400        C  0.56663838  0.21157395  0.17862793    -0.00500
C401        C  0.57801799  0.21846040  0.20778035    -0.12200
C402        C  0.61851207  0.21935387  0.21832270     0.01800
H403        H  0.66176353  0.20462974  0.15562652     0.14700
H404        H  0.55538711  0.22355408  0.22233814     0.14700
C405        C  0.62972633  0.22882329  0.24831448     0.36400
C406        C  0.58866786  0.20147677  0.12926492     0.36300
N407        N  0.63890691  0.23665565  0.27229801    -0.44000
N408        N  0.58202944  0.19773131  0.10485883    -0.44000
C409        C  0.63916139  0.69178490  0.28599218    -0.00400
C410        C  0.64143559  0.67376610  0.31295474    -0.12200
C411        C  0.66381586  0.64723920  0.31657774     0.01900
C412        C  0.68362976  0.63748377  0.29285096    -0.00500
C413        C  0.67904353  0.65307930  0.26562944    -0.12200
C414        C  0.65735501  0.68036577  0.26204500     0.01800
H415        H  0.62715992  0.68185278  0.33148910     0.14700
H416        H  0.69424772  0.64564470  0.24729574     0.14700
C417        C  0.65379716  0.69571167  0.23361352     0.36400
C418        C  0.66602408  0.63034847  0.34481411     0.36300
N419        N  0.65083759  0.70783653  0.21079142    -0.44000
N420        N  0.66765497  0.61664523  0.36740903    -0.44000
C421        C  0.63882519  0.95201656  0.26014313    -0.00400
C422        C  0.65262021  0.97090839  0.23266906    -0.12200
C423        C  0.67732695  0.01943305  0.22819107     0.01900
C424        C  0.68872787  0.05017844  0.25160522    -0.00500
C425        C  0.67214275  0.03118438  0.27893047    -0.12200
C426        C  0.64746490  0.98232463  0.28335812     0.01800
H427        H  0.64557502  0.94761116  0.21472531     0.14700
H428        H  0.68009253  0.05445771  0.29700089     0.14700
C429        C  0.63054018  0.96403966  0.31160403     0.36400
C430        C  0.69063568  0.03662324  0.19931668     0.36300
N431        N  0.61642646  0.94937736  0.33417586    -0.44000
N432        N  0.70125834  0.05021485  0.17615607    -0.44000
C433        C  0.64439583  0.69579521  0.03771863    -0.00400
C434        C  0.64173064  0.67316225  0.06385953    -0.12200
C435        C  0.66581329  0.64840847  0.06788893     0.01900
C436        C  0.69143652  0.64461047  0.04516428    -0.00500
C437        C  0.69237551  0.66513711  0.01869121    -0.12200
C438        C  0.66968237  0.69116560  0.01483978     0.01800
H439        H  0.62256306  0.67656052  0.08158754     0.14700
H440        H  0.71247248  0.66231046  0.00128212     0.14700
C441        C  0.67540562  0.71481672  0.48747882     0.36400
C442        C  0.66438878  0.62781027  0.09549848     0.36300
N443        N  0.67973661  0.73319063  0.46560369    -0.44000
N444        N  0.66337427  0.61137233  0.11763128    -0.44000
C445        C  0.64525273  0.95337700  0.00394556    -0.00400
C446        C  0.65386333  0.97057030  0.47583114    -0.12200
C447        C  0.67872343  0.01892892  0.47025109     0.01900
C448        C  0.69330449  0.05077306  0.49316543    -0.00500
C449        C  0.68340753  0.03352104  0.02122690    -0.12200
C450        C  0.66042387  0.98526582  0.02685616     0.01800
H451        H  0.64292148  0.94610611  0.45815318     0.14700
H452        H  0.69527958  0.05795278  0.03895640     0.14700
C453        C  0.65309780  0.96946055  0.05623525     0.36400
C454        C  0.68891646  0.03489749  0.44097494     0.36300
N455        N  0.64755053  0.95690526  0.07978873    -0.44000
N456        N  0.69726785  0.04759666  0.41750228    -0.44000
C457        C  0.63004785  0.80872984  0.42891791    -0.00400
C458        C  0.65414606  0.85068985  0.41302761    -0.12200
C459        C  0.65360829  0.84970854  0.38293305     0.01900
C460        C  0.62829851  0.80626231  0.36875184    -0.00500
C461        C  0.60910389  0.76449840  0.38479286    -0.12200
C462        C  0.60975337  0.76537201  0.41456599     0.01800
H463        H  0.66981162  0.88418223  0.42396377     0.14700
H464        H  0.59048355  0.73089025  0.37396876     0.14700
C465        C  0.58610585  0.72122812  0.42995570     0.36400
C466        C  0.67600301  0.89345614  0.36723793     0.36300
N467        N  0.56718595  0.68589493  0.44228740    -0.44000
N468        N  0.69451993  0.92864021  0.35474333    -0.44000
C469        C  0.62774254  0.82358954  0.11806677    -0.00400
C470        C  0.60788580  0.84776564  0.13108691    -0.12200
C471        C  0.60532377  0.84909298  0.16079703     0.01900
C472        C  0.62254022  0.82550966  0.17818513    -0.00500
C473        C  0.64676149  0.80534540  0.16531535    -0.12200
C474        C  0.64944142  0.80421097  0.13532714     0.01800
H475        H  0.59133529  0.86288238  0.11793888     0.14700
H476        H  0.66047253  0.78757191  0.17848984     0.14700
C477        C  0.67112836  0.77974384  0.12277655     0.36400
C478        C  0.58249263  0.87287779  0.17285780     0.36300
N479        N  0.68880817  0.76034931  0.11278232    -0.44000
N480        N  0.56414563  0.89203065  0.18228223    -0.44000
C481        C  0.05174405  0.35337458  0.45845743    -0.00400
C482        C  0.02864031  0.30516870  0.46460753    -0.12200
C483        C  0.98047554  0.28022691  0.47045936     0.01900
C484        C  0.95394701  0.30352041  0.46968777    -0.00500
C485        C  0.97721113  0.35198941  0.46344728    -0.12200
C486        C  0.02586158  0.37707864  0.45811064     0.01800
H487        H  0.04849878  0.28682817  0.46493294     0.14700
H488        H  0.95726299  0.37018060  0.46237744     0.14700
C489        C  0.04794129  0.42634374  0.45076821     0.36400
C490        C  0.95915126  0.23028742  0.47571072     0.36300
N491        N  0.06574143  0.46577386  0.44469582    -0.44000
N492        N  0.94218691  0.19030694  0.47991312    -0.44000
C493        C  0.30606911  0.35604326  0.41864749    -0.00400
C494        C  0.28366995  0.30803231  0.42594050    -0.12200
C495        C  0.30553333  0.28159438  0.42176047     0.01900
C496        C  0.35125365  0.30305402  0.41030022    -0.00500
C497        C  0.37449983  0.35109782  0.40339299    -0.12200
C498        C  0.35206246  0.37763605  0.40705312     0.01800
H499        H  0.24827708  0.29046079  0.43459346     0.14700
H500        H  0.40985756  0.36764740  0.39473166     0.14700
C501        C  0.37699680  0.42652003  0.39865610     0.36400
C502        C  0.28063410  0.23265553  0.43028956     0.36300
N503        N  0.39697583  0.46560396  0.39167210    -0.44000
N504        N  0.26057620  0.19352282  0.43716760    -0.44000
C505        C  0.35383970  0.56897491  0.46916068    -0.00400
C506        C  0.35134038  0.60964747  0.47435453    -0.12200
C507        C  0.39079068  0.65112067  0.48339072     0.01900
C508        C  0.43415753  0.65241774  0.48788178    -0.00500
C509        C  0.43650746  0.61162007  0.98325233    -0.12200
C510        C  0.39724738  0.57023911  0.47320856     0.01800
H511        H  0.31839105  0.60928746  0.47092018     0.14700
H512        H  0.46950243  0.61213133  0.98687201     0.14700
C513        C  0.40155491  0.52930095  0.96887454     0.36400
C514        C  0.38498300  0.69120445  0.48874994     0.36300
N515        N  0.40529962  0.49654700  0.96509427    -0.44000
N516        N  0.38008245  0.72318338  0.49289543    -0.44000
C517        C  0.95111005  0.29725618  0.20585766    -0.00400
C518        C  0.97471198  0.34657201  0.20434345    -0.12200
C519        C  0.02353540  0.37262888  0.19964288     0.01900
C520        C  0.04938120  0.34914168  0.19602586    -0.00500
C521        C  0.02520733  0.29980689  0.19615256    -0.12200
C522        C  0.97675163  0.27386149  0.20100058     0.01800
H523        H  0.95514416  0.36479862  0.20734682     0.14700
H524        H  0.04446521  0.28122561  0.19322895     0.14700
C525        C  0.95417327  0.22317105  0.20006139     0.36400
C526        C  0.04598797  0.42320688  0.19796977     0.36300
N527        N  0.93623513  0.18260755  0.19921146    -0.44000
N528        N  0.06403137  0.46374803  0.19648837    -0.44000
C529        C  0.35668145  0.30439380  0.16550676    -0.00400
C530        C  0.34376762  0.30975446  0.19307987    -0.12200
C531        C  0.32116252  0.33559484  0.19774139     0.01900
C532        C  0.31175379  0.35727635  0.17445655    -0.00500
C533        C  0.32611284  0.35312970  0.14692261    -0.12200
C534        C  0.34779552  0.32631932  0.14223761     0.01800
H535        H  0.34953049  0.29198308  0.21091596     0.14700
H536        H  0.31836651  0.36900139  0.12881171     0.14700
C537        C  0.35999840  0.32121031  0.11343802     0.36400
C538        C  0.30777115  0.33894717  0.22655468     0.36300
N539        N  0.36960957  0.31680669  0.09037961    -0.44000
N540        N  0.29702499  0.34137745  0.24968295    -0.44000
C541        C  0.17864447  0.36878877  0.28177452    -0.00400
C542        C  0.21374959  0.36391735  0.29595071    -0.12200
C543        C  0.21650038  0.36497325  0.32588333     0.01900
C544        C  0.18343474  0.37062331  0.34206540    -0.00500
C545        C  0.14611439  0.37167051  0.32791849    -0.12200
C546        C  0.14349017  0.37075581  0.29797744     0.01800
H547        H  0.24135932  0.36339988  0.28364734     0.14700
H548        H  0.12098541  0.37664884  0.34014719     0.14700
C549        C  0.10647701  0.37553135  0.28420001     0.36400
C550        C  0.25620841  0.36473652  0.33927669     0.36300
N551        N  0.07686272  0.37935719  0.27310747    -0.44000
N552        N  0.28836318  0.36462547  0.34957961    -0.44000
C553        C  0.20131529  0.37357491  0.03175204    -0.00400
C554        C  0.24502001  0.39839192  0.04555360    -0.12200
C555        C  0.24807636  0.40029057  0.07526294     0.01900
C556        C  0.20668800  0.37683846  0.09187896    -0.00500
C557        C  0.16351564  0.34743897  0.07825141    -0.12200
C558        C  0.16054390  0.34572125  0.04820845     0.01800
H559        H  0.27655038  0.41947294  0.03302473     0.14700
H560        H  0.13170155  0.32901956  0.09087976     0.14700
C561        C  0.11483967  0.31897657  0.03491446     0.36400
C562        C  0.29394572  0.42937778  0.08810837     0.36300
N563        N  0.07808620  0.29734299  0.02438581    -0.44000
N564        N  0.33068435  0.45296277  0.09826721    -0.44000
C565        C  0.34865059  0.56528552  0.22518557    -0.00400
C566        C  0.34523681  0.60557590  0.23008688    -0.12200
C567        C  0.38484034  0.64825431  0.23743660     0.01900
C568        C  0.42900614  0.65092309  0.24088325    -0.00500
C569        C  0.43228835  0.61037939  0.23673212    -0.12200
C570        C  0.39286232  0.56793571  0.22858915     0.01800
H571        H  0.31172521  0.60427294  0.22712505     0.14700
H572        H  0.46593673  0.61196032  0.23964974     0.14700
C573        C  0.39890220  0.52777685  0.22419561     0.36400
C574        C  0.37858630  0.68828393  0.24180094     0.36300
N575        N  0.40393573  0.49574937  0.22056695    -0.44000
N576        N  0.37326168  0.72019167  0.24513868    -0.44000
C577        C  0.29871717  0.94874919  0.37269701    -0.00400
C578        C  0.27476814  0.97416527  0.37213423    -0.12200
C579        C  0.29829161  0.02224166  0.37761815     0.01900
C580        C  0.34718928  0.04621486  0.38326973    -0.00500
C581        C  0.37158045  0.02122799  0.38336565    -0.12200
C582        C  0.34759398  0.97256150  0.37864208     0.01800
H583        H  0.23716565  0.95621879  0.36783541     0.14700
H584        H  0.40925389  0.03968015  0.38737389     0.14700
C585        C  0.37404007  0.94822781  0.37947343     0.36400
C586        C  0.27170276  0.04649318  0.37594421     0.36300
N587        N  0.39524431  0.92871912  0.38031750    -0.44000
N588        N  0.25048713  0.06595971  0.37451133    -0.44000
C589        C  0.94524455  0.64915538  0.32568245    -0.00400
C590        C  0.96825350  0.62360512  0.33183649    -0.12200
C591        C  0.01718026  0.64679037  0.33637037     0.01900
C592        C  0.04339233  0.69630084  0.33543261    -0.00500
C593        C  0.02039505  0.72167140  0.32951701    -0.12200
C594        C  0.97201610  0.69881690  0.32446544     0.01800
H595        H  0.94802666  0.58554725  0.33306407     0.14700
H596        H  0.04053339  0.75979264  0.32860557     0.14700
C597        C  0.95083910  0.72766360  0.31924728     0.36400
C598        C  0.03936402  0.61934551  0.34301375     0.36300
N599        N  0.93402784  0.75087556  0.31501592    -0.44000
N600        N  0.05722038  0.59743336  0.34840638    -0.44000
C601        C  0.21150798  0.56644391  0.40601960    -0.00400
C602        C  0.20666349  0.57260902  0.37683972    -0.12200
C603        C  0.20426426  0.61170773  0.36700345     0.01900
C604        C  0.20812972  0.64609792  0.38657569    -0.00500
C605        C  0.21342352  0.64008735  0.41574129    -0.12200
C606        C  0.21443369  0.60031048  0.42564421     0.01800
H607        H  0.20458838  0.54674765  0.36175109     0.14700
H608        H  0.21671173  0.66650163  0.43079998     0.14700
C609        C  0.22025160  0.59600230  0.45594299     0.36400
C610        C  0.19981833  0.61660680  0.33661535     0.36300
N611        N  0.22479912  0.59266816  0.48023959    -0.44000
N612        N  0.19613844  0.62040795  0.31227135    -0.44000
C613        C  0.34536846  0.78314029  0.32327711    -0.00400
C614        C  0.34565788  0.74062436  0.32295852    -0.12200
C615        C  0.38653512  0.73945818  0.31628196     0.01900
C616        C  0.42837290  0.78169946  0.30935051    -0.00500
C617        C  0.42785556  0.82427718  0.30959959    -0.12200
C618        C  0.38694422  0.82533998  0.31659734     0.01800
H619        H  0.31384404  0.70809871  0.32837914     0.14700
H620        H  0.45938552  0.85685181  0.30394869     0.14700
C621        C  0.38792485  0.86976389  0.31539034     0.36400
C622        C  0.38346288  0.69403156  0.31552832     0.36300
N623        N  0.38870829  0.90535198  0.31416411    -0.44000
N624        N  0.38067900  0.65750748  0.31486146    -0.44000
C625        C  0.30493113  0.95102004  0.11960698    -0.00400
C626        C  0.31516572  0.96902128  0.14748092    -0.12200
C627        C  0.34006233  0.01751049  0.15228762     0.01900
C628        C  0.35632568  0.04891747  0.12888577    -0.00500
C629        C  0.34871567  0.03082843  0.10103945    -0.12200
C630        C  0.32226630  0.98231381  0.09619609     0.01800
H631        H  0.30225728  0.94511302  0.16559900     0.14700
H632        H  0.36185842  0.05474585  0.08296727     0.14700
C633        C  0.31350227  0.96557255  0.06712396     0.36400
C634        C  0.34902248  0.03410203  0.18139601     0.36300
N635        N  0.30634595  0.95218389  0.04382032    -0.44000
N636        N  0.35630727  0.04737269  0.20472220    -0.44000
C637        C  0.04735585  0.69494869  0.08678922    -0.00400
C638        C  0.02969735  0.68573317  0.05867349    -0.12200
C639        C  0.98107247  0.66200373  0.05324551     0.01900
C640        C  0.94923962  0.64513721  0.07627185    -0.00500
C641        C  0.96694602  0.65255024  0.10430232    -0.12200
C642        C  0.01539601  0.67857466  0.10974402     0.01800
H643        H  0.05396285  0.69893421  0.04087376     0.14700
H644        H  0.94266038  0.63978334  0.12211271     0.14700
C645        C  0.03095818  0.68896765  0.13902915     0.36400
C646        C  0.96481603  0.65537150  0.02398030     0.36300
N647        N  0.04247490  0.69761445  0.16265073    -0.44000
N648        N  0.95182672  0.65023391  0.00052001    -0.44000
C649        C  0.17287563  0.80205455  0.00836267    -0.00400
C650        C  0.18841612  0.84526658  0.49410244    -0.12200
C651        C  0.18810189  0.84701441  0.46402129     0.01900
C652        C  0.17151868  0.80515331  0.44818661    -0.00500
C653        C  0.15132762  0.76204327  0.46265149    -0.12200
C654        C  0.15223514  0.76021063  0.49236110     0.01800
H655        H  0.20404411  0.87738568  0.00621893     0.14700
H656        H  0.13852482  0.72979754  0.45058446     0.14700
C657        C  0.13498413  0.71446423  0.00577519     0.36400
C658        C  0.20951193  0.89226970  0.44997759     0.36300
N659        N  0.12155104  0.67787406  0.01617278    -0.44000
N660        N  0.22675196  0.92859603  0.43875169    -0.44000
C661        C  0.17936392  0.80901873  0.19807591    -0.00400
C662        C  0.19958348  0.85162010  0.21326465    -0.12200
C663        C  0.19882554  0.85155457  0.24337426     0.01900
C664        C  0.17644644  0.80838423  0.25826646    -0.00500
C665        C  0.15243252  0.76636581  0.24285152    -0.12200
C666        C  0.15462066  0.76622796  0.21315375     0.01800
H667        H  0.21964024  0.88460063  0.20182115     0.14700
H668        H  0.13538175  0.73304060  0.25426099     0.14700
C669        C  0.13548570  0.72145390  0.19890719     0.36400
C670        C  0.22511184  0.89541910  0.25846108     0.36300
N671        N  0.12088260  0.68555433  0.18765166    -0.44000
N672        N  0.24634402  0.93051611  0.27062034    -0.44000
C673        C  0.22144336  0.56876832  0.15252181    -0.00400
C674        C  0.17784493  0.56590527  0.14710091    -0.12200
C675        C  0.17519017  0.60573545  0.13914962     0.01900
C676        C  0.21683688  0.64998198  0.13702920    -0.00500
C677        C  0.26039891  0.65285780  0.14264857    -0.12200
C678        C  0.26313413  0.61294565  0.15012134     0.01800
H679        H  0.14558671  0.53231241  0.14910099     0.14700
H680        H  0.29273296  0.68639990  0.14068452     0.14700
C681        C  0.30919082  0.61898143  0.15604469     0.36400
C682        C  0.12916319  0.60014775  0.13390585     0.36300
N683        N  0.34623223  0.62410762  0.16064300    -0.44000
N684        N  0.09226645  0.59558176  0.12961330    -0.44000
C685        C  0.34995994  0.78662388  0.07100916    -0.00400
C686        C  0.35244742  0.74544991  0.07360123    -0.12200
C687        C  0.39312620  0.74457935  0.06606515     0.01900
C688        C  0.43273289  0.78582053  0.05528684    -0.00500
C689        C  0.42992538  0.82710732  0.05255709    -0.12200
C690        C  0.38910590  0.82786228  0.06047327     0.01800
H691        H  0.32247638  0.71375836  0.08198143     0.14700
H692        H  0.45955444  0.85885716  0.04403863     0.14700
C693        C  0.38743105  0.87064274  0.05645671     0.36400
C694        C  0.39196174  0.70015055  0.06881213     0.36300
N695        N  0.38595487  0.90483214  0.05308439    -0.44000
N696        N  0.39073852  0.66443775  0.07106607    -0.44000
Fe697      Fe  0.19728636  0.73591094  0.57708536     1.65800
Fe698      Fe  0.26333239  0.80207503  0.63104978     1.73200
Fe699      Fe  0.17853965  0.82033782  0.60332202     1.54400
O700        O  0.17006174  0.81626085  0.55839102    -0.81900
O701        O  0.21823328  0.78945558  0.66398597    -0.80200
O702        O  0.20852088  0.78026237  0.54378674    -0.84400
O703        O  0.12560701  0.71424924  0.57657763    -0.79200
O704        O  0.24020134  0.88373226  0.59901085    -0.81000
O705        O  0.25023427  0.73291775  0.63449998    -0.83800
C706        C  0.09880081  0.72394833  0.59095758     0.97000
C707        C  0.18532791  0.80084713  0.53860928     1.04400
O708        O  0.21275725  0.78607356  0.60387694    -1.12700
O709        O  0.31080906  0.81576441  0.59897414    -0.75200
O710        O  0.26700774  0.75089379  0.57372443    -0.78700
O711        O  0.11472302  0.75913828  0.60747833    -0.79400
C712        C  0.30686802  0.78516260  0.58117823     0.95900
O713        O  0.18543921  0.68867401  0.60917720    -0.77300
O714        O  0.28376471  0.87299214  0.63167526    -0.82500
C715        C  0.19346241  0.80859143  0.66827615     0.98500
C716        C  0.27503441  0.89964129  0.61610480     1.04400
O717        O  0.18151593  0.82734489  0.64827018    -0.78200
C718        C  0.21680583  0.69277344  0.62678575     1.02700
Fe719      Fe  0.19267475  0.73439771  0.82683138     1.65800
Fe720      Fe  0.25702592  0.79852026  0.88226084     1.73200
Fe721      Fe  0.17459217  0.81942411  0.85341094     1.54400
O722        O  0.16953957  0.81859689  0.80840023    -0.81900
O723        O  0.21070985  0.78596616  0.91436204    -0.80200
O724        O  0.20495720  0.77949523  0.79378348    -0.84400
O725        O  0.12102839  0.71252875  0.82601294    -0.79200
O726        O  0.23617672  0.88212336  0.85098691    -0.81000
O727        O  0.24201873  0.72881184  0.88573090    -0.83800
C728        C  0.09461754  0.72347372  0.83978307     0.97000
C729        C  0.18510243  0.80340576  0.78869035     1.04400
O730        O  0.20788642  0.78412108  0.85415940    -1.12700
O731        O  0.30569403  0.81171692  0.85119594    -0.75200
O732        O  0.26229729  0.74903631  0.82408770    -0.78700
O733        O  0.11061317  0.75923907  0.85574130    -0.79400
C734        C  0.30203157  0.78199934  0.83281534     0.95900
O735        O  0.17957825  0.68601339  0.85811431    -0.77300
O736        O  0.27939660  0.87005696  0.88316513    -0.82500
C737        C  0.18583678  0.80501366  0.91844332     0.98500
C738        C  0.27051401  0.89734407  0.86834245     1.04400
O739        O  0.17452233  0.82414670  0.89837672    -0.78200
C740        C  0.20942978  0.68932365  0.87658331     1.02700
Fe741      Fe  0.27030118  0.46500819  0.66196587     1.65800
Fe742      Fe  0.19682512  0.46164490  0.71221738     1.73200
Fe743      Fe  0.18538769  0.36037365  0.68677104     1.54400
O744        O  0.19282239  0.35821391  0.64192968    -0.81900
O745        O  0.20285220  0.42782644  0.74732293    -0.80200
O746        O  0.22916771  0.43317940  0.62739612    -0.84400
O747        O  0.29279476  0.41591570  0.66233910    -0.79200
O748        O  0.12071620  0.35468441  0.68037388    -0.81000
O749        O  0.26593346  0.51631492  0.71919114    -0.83800
C750        C  0.28316540  0.37994418  0.67744874     0.97000
C751        C  0.20866164  0.38953653  0.62218699     1.04400
O752        O  0.21722105  0.42868059  0.68710794    -1.12700
O753        O  0.18874366  0.49771744  0.67883947    -0.75200
O754        O  0.25674137  0.52050597  0.65721148    -0.78700
O755        O  0.24745441  0.36068246  0.69352683    -0.79400
C756        C  0.22210044  0.52626260  0.66299458     0.95900
O757        O  0.31343153  0.49798055  0.69582873    -0.77300
O758        O  0.12571777  0.41139081  0.70851585    -0.82500
C759        C  0.18631665  0.38424321  0.75161700     0.98500
C760        C  0.10171776  0.37378144  0.69432030     1.04400
O761        O  0.17484296  0.35455331  0.73138303    -0.78200
C762        C  0.30698939  0.52337423  0.71333233     1.02700
Fe763      Fe  0.20167777  0.46415694  0.96548894     1.65800
Fe764      Fe  0.26430169  0.46537814  0.90858208     1.73200
Fe765      Fe  0.18222533  0.36196562  0.93746059     1.54400
O766        O  0.17905919  0.35694831  0.98239633    -0.81900
O767        O  0.21855439  0.43083134  0.87578573    -0.80200
O768        O  0.21651820  0.43113455  0.99745683    -0.84400
O769        O  0.13008489  0.41404412  0.96698044    -0.79200
O770        O  0.24409831  0.36163726  0.93962087    -0.81000
O771        O  0.24679931  0.51856903  0.90536579    -0.83800
C772        C  0.10277937  0.37712462  0.95296801     0.97000
C773        C  0.19901036  0.38746194  0.50200523     1.04400
O774        O  0.21565640  0.43043573  0.93691001    -1.12700
O775        O  0.31410694  0.50241416  0.93935181    -0.75200
O776        O  0.27091178  0.51929250  0.96801978    -0.78700
O777        O  0.11789208  0.35786996  0.93596351    -0.79400
C778        C  0.31060343  0.52723938  0.95866847     0.95900
O779        O  0.18712998  0.49997414  0.93522544    -0.77300
O780        O  0.28796295  0.41683773  0.90792973    -0.82500
C781        C  0.19435092  0.38682503  0.87197433     0.98500
C782        C  0.27863923  0.38040889  0.92262540     1.04400
O783        O  0.18139229  0.35713776  0.89249964    -0.78200
C784        C  0.21484506  0.52547383  0.91569925     1.02700
Fe785      Fe  0.53762195  0.80408334  0.99489412     1.65800
Fe786      Fe  0.53753424  0.73793348  0.54967217     1.73200
Fe787      Fe  0.64107882  0.82427369  0.52339833     1.54400
O788        O  0.64591610  0.82863851  0.97841592    -0.81900
O789        O  0.57056322  0.78147005  0.58336974    -0.80200
O790        O  0.57148594  0.79228858  0.96252165    -0.84400
O791        O  0.58706716  0.87527670  0.99387684    -0.79200
O792        O  0.64487517  0.76416875  0.52096917    -0.81000
O793        O  0.48330009  0.75317540  0.55319714    -0.83800
C794        C  0.62311375  0.90239234  0.50856566     0.97000
C795        C  0.61534239  0.80988499  0.95847573     1.04400
O796        O  0.57229790  0.78893318  0.52274906    -1.12700
O797        O  0.50174537  0.69056079  0.51764495    -0.75200
O798        O  0.48293893  0.73513491  0.99115375    -0.78700
O799        O  0.64253240  0.88724396  0.52577420    -0.79400
C800        C  0.47563727  0.69507545  0.99936269     0.95900
O801        O  0.50086240  0.81558041  0.52600441    -0.77300
O802        O  0.58672510  0.71575912  0.54976181    -0.82500
C803        C  0.61406254  0.80897193  0.58806496     0.98500
C804        C  0.62382204  0.72677116  0.53564428     1.04400
O805        O  0.64500483  0.82379139  0.56836904    -0.78200
C806        C  0.47509752  0.78526286  0.54453673     1.02700
Fe807      Fe  0.53166511  0.80346748  0.74795787     1.65800
Fe808      Fe  0.53406258  0.73553834  0.80089697     1.73200
Fe809      Fe  0.63625118  0.82119139  0.77340072     1.54400
O810        O  0.63915465  0.82981404  0.72848350    -0.81900
O811        O  0.56845329  0.77852784  0.83436101    -0.80200
O812        O  0.56441723  0.79554797  0.71337583    -0.84400
O813        O  0.58052240  0.87471196  0.74886420    -0.79200
O814        O  0.63858988  0.75984980  0.76832266    -0.81000
O815        O  0.47882594  0.74909621  0.80615715    -0.83800
C816        C  0.61734440  0.90079834  0.76335927     0.97000
C817        C  0.60829118  0.81585693  0.70851172     1.04400
O818        O  0.56756916  0.78681137  0.77399223    -1.12700
O819        O  0.49785367  0.68951119  0.76880243    -0.75200
O820        O  0.47730110  0.73406802  0.74344921    -0.78700
O821        O  0.63835577  0.88464838  0.77856942    -0.79400
C822        C  0.47082414  0.69400559  0.75118322     0.95900
O823        O  0.49669411  0.81316670  0.78079451    -0.77300
O824        O  0.58363603  0.71382862  0.79960869    -0.82500
C825        C  0.61257469  0.80163827  0.83859465     0.98500
C826        C  0.61900254  0.72337570  0.78409919     1.04400
O827        O  0.64234142  0.81708911  0.81819779    -0.78200
C828        C  0.47073321  0.78168378  0.79856129     1.02700
Fe829      Fe  0.80132820  0.26122148  0.70111275     1.65800
Fe830      Fe  0.74159160  0.20261038  0.76032421     1.73200
Fe831      Fe  0.81922295  0.17597252  0.73020282     1.54400
O832        O  0.81656296  0.16951037  0.68534062    -0.81900
O833        O  0.78970143  0.21401726  0.79158413    -0.80200
O834        O  0.78749361  0.21409859  0.66936871    -0.84400
O835        O  0.87307648  0.28304329  0.69983866    -0.79200
O836        O  0.75646738  0.11423864  0.73190035    -0.81000
O837        O  0.75998772  0.27293144  0.76266791    -0.83800
C838        C  0.90007445  0.27031004  0.71167396     0.97000
C839        C  0.80008714  0.18394169  0.66540676     1.04400
O840        O  0.78768431  0.21349119  0.73057843    -1.12700
O841        O  0.69021914  0.19115600  0.73109079    -0.75200
O842        O  0.73150102  0.24551249  0.69803135    -0.78700
O843        O  0.88484537  0.23440042  0.72774929    -0.79400
C844        C  0.69273857  0.21646993  0.70983662     0.95900
O845        O  0.81521420  0.31309353  0.73010170    -0.77300
O846        O  0.71498408  0.13017744  0.76259839    -0.82500
C847        C  0.81567930  0.19602034  0.79536996     0.98500
C848        C  0.72156975  0.10124052  0.74832013     1.04400
O849        O  0.82617481  0.17687551  0.77523685    -0.78200
C850        C  0.78936786  0.31125057  0.75061904     1.02700
Fe851      Fe  0.80648917  0.26994066  0.95412509     1.65800
Fe852      Fe  0.73306716  0.19892433  0.50444468     1.73200
Fe853      Fe  0.81914547  0.18079495  0.98040997     1.54400
O854        O  0.83179408  0.18794071  0.93580633    -0.81900
O855        O  0.77272913  0.20607527  0.53969677    -0.80200
O856        O  0.79960037  0.22970914  0.91953282    -0.84400
O857        O  0.87765654  0.29017917  0.95728893    -0.79200
O858        O  0.75776028  0.11864092  0.97313038    -0.81000
O859        O  0.74718411  0.26785976  0.50935374    -0.83800
C860        C  0.90178534  0.27699014  0.97207936     0.97000
C861        C  0.81989804  0.20601881  0.91534470     1.04400
O862        O  0.78644784  0.21648118  0.97960712    -1.12700
O863        O  0.69056559  0.19014546  0.97006133    -0.75200
O864        O  0.73760404  0.25696046  0.94725499    -0.78700
O865        O  0.88268077  0.24041221  0.98767451    -0.79400
C866        C  0.69662059  0.22295576  0.95312630     0.95900
O867        O  0.81505342  0.31353252  0.98734176    -0.77300
O868        O  0.71117343  0.12785291  0.50360785    -0.82500
C869        C  0.79393889  0.18341747  0.54497685     0.98500
C870        C  0.72174379  0.10193621  0.98900466     1.04400
O871        O  0.81052247  0.16915775  0.52522056    -0.78200
C872        C  0.78214671  0.30825314  0.50375577     1.02700
Fe873      Fe  0.72989021  0.53541605  0.53522396     1.65800
Fe874      Fe  0.79982418  0.53813934  0.58844358     1.73200
Fe875      Fe  0.81806442  0.63994199  0.55928517     1.54400
O876        O  0.81333964  0.64183205  0.51429471    -0.81900
O877        O  0.78951557  0.57273310  0.62076423    -0.80200
O878        O  0.77073109  0.56697852  0.50032139    -0.84400
O879        O  0.70824745  0.58478571  0.53503410    -0.79200
O880        O  0.88138453  0.64150866  0.55524242    -0.81000
O881        O  0.73103128  0.48348181  0.59373690    -0.83800
C882        C  0.72029741  0.62251572  0.54849686     0.97000
C883        C  0.79519350  0.61030561  0.99489990     1.04400
O884        O  0.78281293  0.57143498  0.56077942    -1.12700
O885        O  0.80995180  0.50127121  0.55700974    -0.75200
O886        O  0.74463831  0.48081106  0.53183207    -0.78700
O887        O  0.75766477  0.64354427  0.56328237    -0.79400
C888        C  0.77806621  0.47401182  0.53974385     0.95900
O889        O  0.68468819  0.50143677  0.56845843    -0.77300
O890        O  0.87120330  0.58760228  0.58781099    -0.82500
C891        C  0.80730614  0.61654750  0.62448230     0.98500
C892        C  0.89766558  0.62289994  0.57231091     1.04400
O893        O  0.82578745  0.64657804  0.60423600    -0.78200
C894        C  0.69028700  0.47569714  0.58651515     1.02700
Fe895      Fe  0.79702212  0.53605022  0.83754985     1.65800
Fe896      Fe  0.73025156  0.53280904  0.78206123     1.73200
Fe897      Fe  0.81131084  0.63685793  0.80921229     1.54400
O898        O  0.81913437  0.64235835  0.85409543    -0.81900
O899        O  0.77465911  0.56692232  0.74912409    -0.80200
O900        O  0.78381521  0.56841078  0.87015459    -0.84400
O901        O  0.86818890  0.58781027  0.83747044    -0.79200
O902        O  0.74858463  0.63588627  0.81328433    -0.81000
O903        O  0.74769601  0.47943807  0.77905990    -0.83800
C904        C  0.89330352  0.62419728  0.82227621     0.97000
C905        C  0.80200201  0.61213228  0.87428778     1.04400
O906        O  0.77961667  0.56864404  0.80959595    -1.12700
O907        O  0.68311511  0.49697599  0.81373067    -0.75200
O908        O  0.72819338  0.47977546  0.84126687    -0.78700
O909        O  0.87537328  0.64115191  0.80519503    -0.79400
C910        C  0.68788735  0.47196332  0.83268961     0.95900
O911        O  0.81089798  0.50140201  0.80662015    -0.77300
O912        O  0.70595215  0.58104217  0.78107680    -0.82500
C913        C  0.79440840  0.61066616  0.74425235     0.98500
C914        C  0.71378352  0.61622672  0.79630314     1.04400
O915        O  0.80742327  0.64091946  0.76425279    -0.78200
C916        C  0.78150696  0.47410846  0.78832018     1.02700
Fe917      Fe  0.46244251  0.19931113  0.61861218     1.65800
Fe918      Fe  0.46314053  0.26063074  0.67562152     1.73200
Fe919      Fe  0.35969507  0.17806324  0.64743457     1.54400
O920        O  0.35400446  0.17346994  0.60238339    -0.81900
O921        O  0.42989050  0.21434293  0.70821342    -0.80200
O922        O  0.42817623  0.21336163  0.58704522    -0.84400
O923        O  0.41273549  0.12769734  0.61717669    -0.79200
O924        O  0.35753507  0.23947171  0.64498187    -0.81000
O925        O  0.51762411  0.24514674  0.67823648    -0.83800
C926        C  0.37757021  0.10012519  0.63250502     0.97000
C927        C  0.38423503  0.19386272  0.58258308     1.04400
O928        O  0.42836129  0.21241999  0.64738465    -1.12700
O929        O  0.49848856  0.31064837  0.64482746    -0.75200
O930        O  0.51689779  0.26880712  0.61602844    -0.78700
O931        O  0.35836401  0.11495463  0.64981132    -0.79400
C932        C  0.52375689  0.30795984  0.62547888     0.95900
O933        O  0.49978457  0.18566823  0.64864928    -0.77300
O934        O  0.41354448  0.28240725  0.67677991    -0.82500
C935        C  0.38591772  0.19235597  0.71270683     0.98500
C936        C  0.37763592  0.27411069  0.66185262     1.04400
O937        O  0.35560827  0.17871019  0.69246237    -0.78200
C938        C  0.52533325  0.21374100  0.66806843     1.02700
Fe939      Fe  0.45883139  0.19357901  0.86974098     1.65800
Fe940      Fe  0.46274095  0.26609408  0.92077999     1.73200
Fe941      Fe  0.35744592  0.17776061  0.89806529     1.54400
O942        O  0.34993905  0.16775874  0.85333636    -0.81900
O943        O  0.43190329  0.22698144  0.95651652    -0.80200
O944        O  0.42346483  0.20164347  0.83636409    -0.84400
O945        O  0.40897907  0.12235402  0.87196961    -0.79200
O946        O  0.35364653  0.23767252  0.89269041    -0.81000
O947        O  0.51800419  0.25166706  0.92506015    -0.83800
C948        C  0.37270904  0.09741890  0.88706969     0.97000
C949        C  0.37937314  0.18329439  0.83274858     1.04400
O950        O  0.42601045  0.21226917  0.89632403    -1.12700
O951        O  0.49498351  0.30877106  0.88654952    -0.75200
O952        O  0.51402622  0.26221003  0.86321286    -0.78700
O953        O  0.35560112  0.11512280  0.90372180    -0.79400
C954        C  0.52128037  0.30293671  0.86947764     0.95900
O955        O  0.49595377  0.18483254  0.90202218    -0.77300
O956        O  0.41358478  0.28840304  0.91981323    -0.82500
C957        C  0.38827236  0.20292718  0.96217273     0.98500
C958        C  0.37482075  0.27540967  0.90687287     1.04400
O959        O  0.35655243  0.18421856  0.94283071    -0.78200
C960        C  0.52412755  0.21751272  0.91840384     1.02700
C961        C  0.37100693  0.18732508  0.74285277    -0.00400
C962        C  0.34956171  0.14321742  0.75644766    -0.12200
C963        C  0.34660181  0.13999440  0.78647404     0.01900
C964        C  0.36373758  0.18127846  0.80295969    -0.00500
C965        C  0.38052506  0.22452685  0.78907155    -0.12200
C966        C  0.38539434  0.22808441  0.75946006     0.01800
H967        H  0.33905956  0.11187587  0.74390588     0.14700
H968        H  0.39472877  0.25639561  0.80166875     0.14700
C969        C  0.41007675  0.27473808  0.74717981     0.36400
C970        C  0.33087966  0.09486380  0.79988491     0.36300
N971        N  0.43075835  0.31254052  0.73802053    -0.44000
N972        N  0.31851593  0.05856971  0.81042158    -0.44000
C973        C  0.36986783  0.19506795  0.55272876    -0.00400
C974        C  0.39253873  0.23874910  0.53881682    -0.12200
C975        C  0.39518836  0.24171091  0.50908983     0.01900
C976        C  0.37518849  0.20001012  0.99262267    -0.00500
C977        C  0.34805698  0.15669431  0.50619812    -0.12200
C978        C  0.34480852  0.15386665  0.53622848     0.01800
H979        H  0.41115088  0.27064604  0.55132680     0.14700
H980        H  0.33146443  0.12450953  0.99368989     0.14700
C981        C  0.31817326  0.10829121  0.54956919     0.36400
C982        C  0.41942455  0.28757063  0.99607013     0.36300
N983        N  0.29600469  0.07165804  0.56006326    -0.44000
N984        N  0.43903918  0.32454574  0.98567717    -0.44000
C985        C  0.64519859  0.43000731  0.84333024    -0.00400
C986        C  0.64725195  0.38882314  0.84793756    -0.12200
C987        C  0.60693107  0.34656337  0.85510277     0.01900
C988        C  0.56339708  0.34519451  0.85841101    -0.00500
C989        C  0.56147750  0.38661229  0.85416242    -0.12200
C990        C  0.60170680  0.42870679  0.84640825     0.10200
H991        H  0.68035671  0.38932154  0.84519588     0.14700
H992        H  0.52841300  0.38613349  0.85700767     0.14700
C993        C  0.59754658  0.47016452  0.84245172     0.36400
C994        C  0.61187776  0.30566359  0.85953689     0.36300
N995        N  0.59417625  0.50333949  0.83922249    -0.44000
N996        N  0.61610316  0.27299944  0.86281748    -0.44000
C997        C  0.80325970  0.62673346  0.90413216    -0.00400
C998        C  0.76001742  0.60926556  0.91803250    -0.12200
C999        C  0.75755236  0.60764399  0.94780696     0.01900
C1000       C  0.79904278  0.62363621  0.96436464    -0.00500
C1001       C  0.84286775  0.64524774  0.95057644    -0.12200
C1002       C  0.84522116  0.64670176  0.92051948     0.01800
H1003       H  0.72768821  0.59363900  0.90555604     0.14700
H1004       H  0.87483080  0.65753656  0.96312130     0.14700
C1005       C  0.89050045  0.66450473  0.90702625     0.36400
C1006       C  0.71152324  0.58664422  0.96082315     0.36300
N1007       N  0.92678712  0.67870749  0.89620289    -0.44000
N1008       N  0.67451024  0.56966685  0.97104021    -0.44000
C1009       C  0.80512219  0.63090703  0.65394700    -0.00400
C1010       C  0.76090712  0.60727466  0.66704889    -0.12200
C1011       C  0.75694257  0.60388569  0.69668469     0.01900
C1012       C  0.79788148  0.62490835  0.71396684    -0.00500
C1013       C  0.84187551  0.65328769  0.70108627    -0.12200
C1014       C  0.84576076  0.65641488  0.67108670     0.01800
H1015       H  0.72949885  0.58786596  0.65399854     0.14700
H1016       H  0.87338176  0.66994951  0.71425951     0.14700
C1017       C  0.89189940  0.68287069  0.65852621     0.36400
C1018       C  0.71046451  0.57560942  0.70873314     0.36300
N1019       N  0.92903760  0.70471563  0.64868154    -0.44000
N1020       N  0.67316285  0.55267318  0.71817748    -0.44000
C1021       C  0.64818262  0.43362110  0.59808375    -0.00400
C1022       C  0.60519788  0.43336111  0.59999435    -0.12200
C1023       C  0.56393443  0.39290851  0.60885989     0.01900
C1024       C  0.56514302  0.35146891  0.61524789    -0.00500
C1025       C  0.60786567  0.35167744  0.61331696    -0.12200
C1026       C  0.64920516  0.39211799  0.60516936     0.01800
H1027       H  0.60379160  0.46478273  0.59449802     0.14700
H1028       H  0.60910933  0.32007818  0.61863635     0.14700
C1029       C  0.69157177  0.38899880  0.60339050     0.36400
C1030       C  0.52064204  0.39431651  0.61029280     0.36300
N1031       N  0.72541224  0.38632785  0.60205890    -0.44000
N1032       N  0.48595201  0.39544891  0.61144680    -0.44000
C1033       C  0.77863617  0.43167093  0.52979988    -0.00400
C1034       C  0.82204646  0.43303587  0.52772671    -0.12200
C1035       C  0.82417209  0.39296154  0.02009458     0.01900
C1036       C  0.78220744  0.35044760  0.51453032    -0.00500
C1037       C  0.73877329  0.34883474  0.51713799    -0.12200
C1038       C  0.73655388  0.38877993  0.52456438     0.01800
H1039       H  0.85450793  0.46528641  0.03238175     0.14700
H1040       H  0.70627345  0.31637666  0.51274699     0.14700
C1041       C  0.69045168  0.38393445  0.52759158     0.36400
C1042       C  0.86983439  0.39642877  0.01884131     0.36300
N1043       N  0.65345172  0.37983924  0.53003583    -0.44000
N1044       N  0.90643097  0.39921492  0.01786321    -0.44000
C1045       C  0.56750208  0.21793971  0.92806301    -0.00400
C1046       C  0.60907099  0.26152470  0.93110596    -0.12200
C1047       C  0.65216618  0.26419691  0.93746797     0.01900
C1048       C  0.65401838  0.22246792  0.94176685    -0.00500
C1049       C  0.61241952  0.17891040  0.93868503    -0.12200
C1050       C  0.56957815  0.17626622  0.93169502     0.01800
H1051       H  0.60818868  0.29380642  0.92777121     0.14700
H1052       H  0.61323159  0.14661231  0.94209878     0.14700
C1053       C  0.52816277  0.13026657  0.92928022     0.36400
C1054       C  0.69337616  0.31028447  0.94020031     0.36300
N1055       N  0.49501030  0.09340624  0.92730038    -0.44000
N1056       N  0.72631949  0.34729330  0.94220328    -0.44000
C1057       C  0.83190007  0.20276853  0.88527674    -0.00400
C1058       C  0.81473801  0.15898811  0.87195853    -0.12200
C1059       C  0.81487198  0.15598911  0.84191264     0.01900
C1060       C  0.83217450  0.19723351  0.82505328    -0.00500
C1061       C  0.85425219  0.24097065  0.83865930    -0.12200
C1062       C  0.85453034  0.24407838  0.86840359     0.01800
H1063       H  0.79791364  0.12711333  0.88473961     0.14700
H1064       H  0.86797534  0.27284444  0.82590162     0.14700
C1065       C  0.87583551  0.29028552  0.88105874     0.36400
C1066       C  0.79322826  0.11019973  0.82883100     0.36300
N1067       N  0.89286473  0.32728645  0.89116263    -0.44000
N1068       N  0.77615908  0.07348749  0.81834224    -0.44000
C1069       C  0.79610985  0.16744584  0.63568561    -0.00400
C1070       C  0.83738232  0.17981231  0.62018754    -0.12200
C1071       C  0.83727976  0.18169353  0.59007519     0.01900
C1072       C  0.79540426  0.17113471  0.57537298    -0.00500
C1073       C  0.75336969  0.15370719  0.59088113    -0.12200
C1074       C  0.75338503  0.15184767  0.62067729     0.01800
H1075       H  0.87046856  0.19228229  0.63155103     0.14700
H1076       H  0.72069151  0.14425702  0.57969187     0.14700
C1077       C  0.70964711  0.13735947  0.63549793     0.36400
C1078       C  0.88111696  0.19890354  0.57498254     0.36300
N1079       N  0.67464174  0.12577426  0.64736342    -0.44000
N1080       N  0.91620304  0.21268801  0.56277679    -0.44000
C1081       C  0.79084974  0.35484262  0.75961367    -0.00400
C1082       C  0.79920109  0.36807119  0.78832999    -0.12200
C1083       C  0.79702239  0.40718751  0.79793498     0.01900
C1084       C  0.78574014  0.43358993  0.77858370    -0.00500
C1085       C  0.77661708  0.41975100  0.74990756    -0.12200
C1086       C  0.77928262  0.38086433  0.74028919     0.01800
H1087       H  0.80683138  0.34738526  0.80335273     0.14700
H1088       H  0.76717767  0.43921686  0.73501996     0.14700
C1089       C  0.76728069  0.36668029  0.71086830     0.36400
C1090       C  0.80383516  0.41767866  0.82808927     0.36300
N1091       N  0.75740972  0.35517076  0.68734322    -0.44000
N1092       N  0.80916826  0.42595948  0.85225977    -0.44000
C1093       C  0.64894855  0.21373546  0.69937832    -0.00400
C1094       C  0.63803510  0.20737419  0.67019123    -0.12200
C1095       C  0.59708540  0.20568174  0.65965463     0.01900
C1096       C  0.56677071  0.21137608  0.67853039    -0.00500
C1097       C  0.57832921  0.21863093  0.70765030    -0.12200
C1098       C  0.61885913  0.21961811  0.71819753     0.01800
H1099       H  0.66166184  0.20394201  0.65560120     0.14700
H1100       H  0.55581828  0.22396074  0.72217865     0.14700
C1101       C  0.63026621  0.22948694  0.74814149     0.36400
C1102       C  0.58846393  0.20055725  0.62922846     0.36300
N1103       N  0.63959866  0.23763940  0.77208541    -0.44000
N1104       N  0.58168146  0.19648287  0.60484094    -0.44000
C1105       C  0.63918236  0.69185741  0.78600818    -0.00400
C1106       C  0.64162115  0.67401532  0.81299699    -0.12200
C1107       C  0.66396015  0.64744649  0.81663102     0.01900
C1108       C  0.68351566  0.63740574  0.79288365    -0.00500
C1109       C  0.67880567  0.65287649  0.76564714    -0.12200
C1110       C  0.65721418  0.68025895  0.76205697     0.01800
H1111       H  0.62751278  0.68228035  0.83153946     0.14700
H1112       H  0.69386467  0.64529170  0.74730193     0.14700
C1113       C  0.65361841  0.69554735  0.73361680     0.36400
C1114       C  0.66643788  0.63085602  0.84491117     0.36300
N1115       N  0.65064757  0.70763988  0.71078773    -0.44000
N1116       N  0.66831019  0.61742024  0.86754546    -0.44000
C1117       C  0.63871348  0.95200932  0.76007104    -0.00400
C1118       C  0.65265071  0.97089593  0.73260972    -0.12200
C1119       C  0.67742494  0.01941822  0.72813179     0.01900
C1120       C  0.68871781  0.05017426  0.75153370    -0.00500
C1121       C  0.67198753  0.03118419  0.77884151    -0.12200
C1122       C  0.64727969  0.98232343  0.78327148     0.01800
H1123       H  0.64570222  0.94759397  0.71468188     0.14700
H1124       H  0.67988264  0.05445887  0.79690453     0.14700
C1125       C  0.63033228  0.96404422  0.81151558     0.36400
C1126       C  0.69097726  0.03658002  0.69927409     0.36300
N1127       N  0.61622909  0.94938092  0.83408893    -0.44000
N1128       N  0.70181005  0.05012460  0.67612444    -0.44000
C1129       C  0.64459211  0.69600682  0.53750837    -0.00400
C1130       C  0.64108533  0.67254678  0.56345135    -0.12200
C1131       C  0.66508083  0.64771729  0.56749917     0.01900
C1132       C  0.69155912  0.64477187  0.54499209    -0.00500
C1133       C  0.69338720  0.66614391  0.51869237    -0.12200
C1134       C  0.67069504  0.69216403  0.51481829     0.01800
H1135       H  0.62128702  0.67531393  0.58103742     0.14700
H1136       H  0.71410596  0.66391204  0.50144766     0.14700
C1137       C  0.67357738  0.71306104  0.98732926     0.36400
C1138       C  0.66268574  0.62615953  0.59491161     0.36300
N1139       N  0.67728167  0.73083924  0.96531040    -0.44000
N1140       N  0.66088363  0.60893761  0.61688456    -0.44000
C1141       C  0.64503791  0.95339170  0.50402146    -0.00400
C1142       C  0.65401406  0.97053990  0.97575008    -0.12200
C1143       C  0.67881470  0.01890011  0.97016130     0.01900
C1144       C  0.69338512  0.05074986  0.99307300    -0.00500
C1145       C  0.68325274  0.03353193  0.52131671    -0.12200
C1146       C  0.66019547  0.98526992  0.52693861     0.01800
H1147       H  0.64305919  0.94606694  0.95807710     0.14700
H1148       H  0.69511911  0.05795489  0.53905064     0.14700
C1149       C  0.65278079  0.96944730  0.55631549     0.36400
C1150       C  0.68895659  0.03486566  0.94088165     0.36300
N1151       N  0.64715802  0.95687789  0.57986706    -0.44000
N1152       N  0.69726652  0.04756118  0.91740620    -0.44000
C1153       C  0.62968736  0.80838749  0.92890515    -0.00400
C1154       C  0.65401747  0.85035784  0.91304394    -0.12200
C1155       C  0.65343718  0.84944934  0.88294551     0.01900
C1156       C  0.62791339  0.80606060  0.86872856    -0.00500
C1157       C  0.60844130  0.76425120  0.88473703    -0.12200
C1158       C  0.60905741  0.76505110  0.91450889     0.01800
H1159       H  0.66989323  0.88383366  0.92400994     0.14700
H1160       H  0.58962670  0.73068093  0.87388620     0.14700
C1161       C  0.58500540  0.72087618  0.92984315     0.36400
C1162       C  0.67595803  0.89323259  0.86728774     0.36300
N1163       N  0.56573943  0.68551192  0.94212184    -0.44000
N1164       N  0.69453580  0.92843843  0.85481732    -0.44000
C1165       C  0.62752945  0.82327835  0.61803643    -0.00400
C1166       C  0.60792982  0.84769886  0.63104310    -0.12200
C1167       C  0.60543053  0.84910352  0.66075196     0.01900
C1168       C  0.62249691  0.82539497  0.67814943    -0.00500
C1169       C  0.64642114  0.80491693  0.66528396    -0.12200
C1170       C  0.64899367  0.80366087  0.63529820     0.01800
H1171       H  0.59152059  0.86295343  0.61788874     0.14700
H1172       H  0.65995135  0.78698599  0.67846399     0.14700
C1173       C  0.67027885  0.77880359  0.62275485     0.36400
C1174       C  0.58275385  0.87304842  0.67279922     0.36300
N1175       N  0.68761061  0.75907188  0.61276417    -0.44000
N1176       N  0.56450828  0.89231441  0.68220349    -0.44000
C1177       C  0.05164560  0.35329835  0.95820954    -0.00400
C1178       C  0.02854107  0.30510914  0.96440983    -0.12200
C1179       C  0.98036621  0.28018323  0.97023586     0.01900
C1180       C  0.95386139  0.30349918  0.96945493    -0.00500
C1181       C  0.97711390  0.35193305  0.96311324    -0.12200
C1182       C  0.02575148  0.37698685  0.95774197     0.01800
H1183       H  0.04839926  0.28677027  0.96478401     0.14700
H1184       H  0.95716467  0.37011946  0.96198485     0.14700
C1185       C  0.04780142  0.42617752  0.95021112     0.36400
C1186       C  0.95898869  0.23022458  0.97543315     0.36300
N1187       N  0.06557561  0.46553709  0.94396716    -0.44000
N1188       N  0.94196824  0.19022227  0.97957190    -0.44000
C1189       C  0.30612936  0.35608855  0.91888507    -0.00400
C1190       C  0.28364137  0.30804218  0.92609917    -0.12200
C1191       C  0.30545517  0.28156535  0.92188974     0.01900
C1192       C  0.35120115  0.30301828  0.91046933    -0.00500
C1193       C  0.37454960  0.35110393  0.90367105    -0.12200
C1194       C  0.35217653  0.37768955  0.90737519     0.01800
H1195       H  0.24821684  0.29047482  0.93470522     0.14700
H1196       H  0.40994377  0.36765455  0.89506413     0.14700
C1197       C  0.37723889  0.42663826  0.89912425     0.36400
C1198       C  0.28048277  0.23259546  0.93035067     0.36300
N1199       N  0.39732110  0.46577824  0.89226212    -0.44000
N1200       N  0.26036841  0.19344026  0.93717905    -0.44000
C1201       C  0.35364392  0.56904274  0.96936262    -0.00400
C1202       C  0.35120953  0.60978737  0.97442319    -0.12200
C1203       C  0.39067774  0.65126258  0.98345837     0.01900
C1204       C  0.43397804  0.65247360  0.98810271    -0.00500
C1205       C  0.43677191  0.61164399  0.48289122    -0.12200
C1206       C  0.39698433  0.57022655  0.97356246     0.01800
H1207       H  0.31830927  0.60948386  0.97087340     0.14700
H1208       H  0.46982480  0.61222654  0.48640202     0.14700
C1209       C  0.40188446  0.52938560  0.46837665     0.36400
C1210       C  0.38495986  0.69144809  0.98863551     0.36300
N1211       N  0.40567835  0.49668752  0.46448054    -0.44000
N1212       N  0.38013922  0.72351329  0.99263265    -0.44000
C1213       C  0.95126315  0.29710855  0.70570859    -0.00400
C1214       C  0.97495205  0.34643484  0.70441459    -0.12200
C1215       C  0.02377576  0.37246353  0.69971496     0.01900
C1216       C  0.04955727  0.34894385  0.69590531    -0.00500
C1217       C  0.02527390  0.29960219  0.69577788    -0.12200
C1218       C  0.97679913  0.27368482  0.70059618     0.01800
H1219       H  0.95545023  0.36468666  0.70759106     0.14700
H1220       H  0.04444849  0.28098137  0.69267445     0.14700
C1221       C  0.95407271  0.22300487  0.69934321     0.36400
C1222       C  0.04628463  0.42306047  0.69824751     0.36300
N1223       N  0.93600889  0.18245138  0.69822605    -0.44000
N1224       N  0.06436632  0.46361740  0.69692817    -0.44000
C1225       C  0.35717780  0.30462575  0.66555130    -0.00400
C1226       C  0.34476017  0.31049342  0.69315878    -0.12200
C1227       C  0.32221195  0.33640056  0.69779512     0.01900
C1228       C  0.31229892  0.35756231  0.67444442    -0.00500
C1229       C  0.32625847  0.35301195  0.64688208    -0.12200
C1230       C  0.34795313  0.32620963  0.64223179     0.01800
H1231       H  0.35087183  0.29307942  0.71105532     0.14700
H1232       H  0.31819364  0.36856367  0.62873572     0.14700
C1233       C  0.35987909  0.32081333  0.61341857     0.36400
C1234       C  0.30947072  0.34044657  0.72665241     0.36300
N1235       N  0.36929935  0.31620836  0.59035248    -0.44000
N1236       N  0.29929009  0.34348707  0.74981900    -0.44000
C1237       C  0.17916134  0.36883332  0.78176184    -0.00400
C1238       C  0.21458928  0.36451313  0.79594241    -0.12200
C1239       C  0.21735234  0.36562407  0.82587352     0.01900
C1240       C  0.18396379  0.37074921  0.84205677    -0.00500
C1241       C  0.14636805  0.37126154  0.82790780    -0.12200
C1242       C  0.14374668  0.37032101  0.79796312     0.01800
H1243       H  0.24239365  0.36437138  0.78363964     0.14700
H1244       H  0.12099201  0.37585136  0.84013562     0.14700
C1245       C  0.10643961  0.37458564  0.78417954     0.36400
C1246       C  0.25734359  0.36595398  0.83926685     0.36300
N1247       N  0.07659450  0.37800808  0.77307923    -0.44000
N1248       N  0.28972721  0.36630624  0.84957169    -0.44000
C1249       C  0.20151652  0.37351069  0.53173229    -0.00400
C1250       C  0.24523825  0.39823638  0.54552556    -0.12200
C1251       C  0.24831272  0.40008060  0.57523664     0.01900
C1252       C  0.20692672  0.37666575  0.59185793    -0.00500
C1253       C  0.16373000  0.34736367  0.57823390    -0.12200
C1254       C  0.16073716  0.34570381  0.54819361     0.01800
H1255       H  0.27677063  0.41929082  0.53299380     0.14700
H1256       H  0.13191521  0.32899707  0.59086730     0.14700
C1257       C  0.11500302  0.31909726  0.53491701     0.36400
C1258       C  0.29419788  0.42909613  0.58808050     0.36300
N1259       N  0.07821424  0.29757475  0.52441467    -0.44000
N1260       N  0.33095403  0.45262411  0.59823331    -0.44000
C1261       C  0.34875112  0.56527148  0.72505453    -0.00400
C1262       C  0.34532094  0.60556958  0.72987066    -0.12200
C1263       C  0.38490369  0.64826207  0.73720671     0.01900
C1264       C  0.42906031  0.65093296  0.74072231    -0.00500
C1265       C  0.43236557  0.61039130  0.73662478    -0.12200
C1266       C  0.39296067  0.56793217  0.72849387     0.01800
H1267       H  0.31181205  0.60425408  0.72685890     0.14700
H1268       H  0.46601308  0.61198385  0.73957853     0.14700
C1269       C  0.39902469  0.52777825  0.72413796     0.36400
C1270       C  0.37862860  0.68829696  0.74148809     0.36300
N1271       N  0.40408523  0.49576143  0.72053402    -0.44000
N1272       N  0.37328344  0.72020563  0.74476047    -0.44000
C1273       C  0.29860452  0.94860673  0.87283500    -0.00400
C1274       C  0.27462214  0.97399012  0.87225247    -0.12200
C1275       C  0.29811259  0.02207606  0.87769962     0.01900
C1276       C  0.34701486  0.04609970  0.88333680    -0.00500
C1277       C  0.37143380  0.02113717  0.88348010    -0.12200
C1278       C  0.34747742  0.97245704  0.87879424     0.01800
H1279       H  0.23702043  0.95601406  0.86795077     0.14700
H1280       H  0.40910697  0.03962054  0.88749042     0.14700
C1281       C  0.37395183  0.94815386  0.87966720     0.36400
C1282       C  0.27148144  0.04628169  0.87599240     0.36300
N1283       N  0.39518368  0.92867471  0.88054403    -0.44000
N1284       N  0.25023118  0.06571014  0.87452910    -0.44000
C1285       C  0.94516001  0.64915900  0.82563091    -0.00400
C1286       C  0.96804867  0.62367683  0.83235066    -0.12200
C1287       C  0.01697206  0.64685735  0.83687816     0.01900
C1288       C  0.04331611  0.69631235  0.83534614    -0.00500
C1289       C  0.02048298  0.72163885  0.82884084    -0.12200
C1290       C  0.97209847  0.69877851  0.82379585     0.01800
H1291       H  0.94772876  0.58566847  0.83404183     0.14700
H1292       H  0.04075877  0.75972239  0.82747681     0.14700
C1293       C  0.95112943  0.72763219  0.81791564     0.36400
C1294       C  0.03902808  0.61951289  0.84413898     0.36300
N1295       N  0.93449623  0.75085545  0.81314436    -0.44000
N1296       N  0.05678393  0.59768605  0.85003034    -0.44000
C1297       C  0.21142977  0.56634422  0.90593477    -0.00400
C1298       C  0.20690973  0.57264980  0.87673303    -0.12200
C1299       C  0.20449145  0.61173067  0.86688302     0.01900
C1300       C  0.20798129  0.64593862  0.88647185    -0.00500
C1301       C  0.21294467  0.63978876  0.91565888    -0.12200
C1302       C  0.21400192  0.60004452  0.92556865     0.01800
H1303       H  0.20511727  0.54692133  0.86163811     0.14700
H1304       H  0.21596336  0.66608244  0.93072639     0.14700
C1305       C  0.21954782  0.59562603  0.95588888     0.36400
C1306       C  0.20044979  0.61682838  0.83647514     0.36300
N1307       N  0.22389230  0.59220434  0.98020005    -0.44000
N1308       N  0.19710948  0.62078877  0.81211300    -0.44000
C1309       C  0.34523331  0.78306293  0.82319825    -0.00400
C1310       C  0.34546840  0.74052254  0.82275373    -0.12200
C1311       C  0.38632433  0.73934828  0.81603001     0.01900
C1312       C  0.42819879  0.78160730  0.80918467    -0.00500
C1313       C  0.42772946  0.82420698  0.80953837    -0.12200
C1314       C  0.38683586  0.82527612  0.81658048     0.01800
H1315       H  0.31363096  0.70798218  0.82811471     0.14700
H1316       H  0.45928696  0.85679551  0.80394657     0.14700
C1317       C  0.38786354  0.86972748  0.81548813     0.36400
C1318       C  0.38319739  0.69390380  0.81514506     0.36300
N1319       N  0.38867746  0.90533546  0.81435540    -0.44000
N1320       N  0.38036779  0.65736533  0.81437207    -0.44000
C1321       C  0.30498919  0.95092591  0.61961116    -0.00400
C1322       C  0.31517479  0.96899072  0.64747001    -0.12200
C1323       C  0.34007232  0.01749472  0.65223305     0.01900
C1324       C  0.35637454  0.04885030  0.62880565    -0.00500
C1325       C  0.34882644  0.03069461  0.60097798    -0.12200
C1326       C  0.32239291  0.98216459  0.59617631     0.01800
H1327       H  0.30222209  0.94512432  0.66560545     0.14700
H1328       H  0.36200345  0.05456862  0.58288602     0.14700
C1329       C  0.31371409  0.96533945  0.56712207     0.36400
C1330       C  0.34898706  0.03416389  0.68132549     0.36300
N1331       N  0.30662448  0.95186863  0.54383586    -0.44000
N1332       N  0.35624462  0.04752011  0.70463387    -0.44000
C1333       C  0.04731957  0.69487762  0.58667531    -0.00400
C1334       C  0.02964068  0.68571205  0.55856245    -0.12200
C1335       C  0.98100763  0.66195205  0.55314877     0.01900
C1336       C  0.94919189  0.64505884  0.57618457    -0.00500
C1337       C  0.96692284  0.65238190  0.60420730    -0.12200
C1338       C  0.01537831  0.67838675  0.60963759     0.01800
H1339       H  0.05389297  0.69895458  0.54075739     0.14700
H1340       H  0.94265347  0.63954337  0.62202457     0.14700
C1341       C  0.03098203  0.68859479  0.63892475     0.36400
C1342       C  0.96471944  0.65526548  0.52388846     0.36300
N1343       N  0.04256018  0.69708023  0.66254787    -0.44000
N1344       N  0.95169754  0.65005773  0.50043339    -0.44000
C1345       C  0.17302536  0.80227711  0.50834817    -0.00400
C1346       C  0.18816186  0.84500742  0.99409676    -0.12200
C1347       C  0.18781931  0.84671751  0.96401591     0.01900
C1348       C  0.17133362  0.80485639  0.94819602    -0.00500
C1349       C  0.15123751  0.76176346  0.96268057    -0.12200
C1350       C  0.15214533  0.75996719  0.99239405     0.01800
H1351       H  0.20435668  0.87763056  0.50623944     0.14700
H1352       H  0.13849033  0.72951135  0.95062720     0.14700
C1353       C  0.13504782  0.71468535  0.50571528     0.36400
C1354       C  0.20910897  0.89195374  0.94995620     0.36300
N1355       N  0.12161083  0.67807905  0.51609002    -0.44000
N1356       N  0.22624988  0.92826432  0.93871549    -0.44000
C1357       C  0.17927172  0.80884017  0.69806459    -0.00400
C1358       C  0.19932050  0.85146869  0.71321937    -0.12200
C1359       C  0.19855824  0.85146477  0.74332994     0.01900
C1360       C  0.17634006  0.80832063  0.75825592    -0.00500
C1361       C  0.15246210  0.76625923  0.74286832    -0.12200
C1362       C  0.15466472  0.76606738  0.71317406     0.01800
H1363       H  0.21925515  0.88444328  0.70175073     0.14700
H1364       H  0.13551628  0.73295275  0.75430105     0.14700
C1365       C  0.13567132  0.72127463  0.69896700     0.36400
C1366       C  0.22467292  0.89538652  0.75838052     0.36300
N1367       N  0.12117907  0.68536111  0.68774604    -0.44000
N1368       N  0.24576722  0.93053914  0.77050333    -0.44000
C1369       C  0.22147645  0.56861809  0.65237305    -0.00400
C1370       C  0.17785426  0.56577765  0.64706992    -0.12200
C1371       C  0.17517722  0.60559697  0.63910642     0.01900
C1372       C  0.21682161  0.64981599  0.63686306    -0.00500
C1373       C  0.26041098  0.65266919  0.64233883    -0.12200
C1374       C  0.26317135  0.61276692  0.64981369     0.01800
H1375       H  0.14559345  0.53221451  0.64917732     0.14700
H1376       H  0.29274138  0.68618992  0.64026970     0.14700
C1377       C  0.30926761  0.61879504  0.65558204     0.36400
C1378       C  0.12913459  0.60004254  0.63399261     0.36300
N1379       N  0.34633534  0.62390809  0.66006054    -0.44000
N1380       N  0.09222471  0.59550616  0.62980538    -0.44000
C1381       C  0.34990131  0.78648047  0.57098539    -0.00400
C1382       C  0.35251831  0.74540487  0.57380586    -0.12200
C1383       C  0.39317394  0.74450774  0.56623872     0.01900
C1384       C  0.43262769  0.78562736  0.55520591    -0.00500
C1385       C  0.42968218  0.82681704  0.55226333    -0.12200
C1386       C  0.38888007  0.82759057  0.56019373     0.01800
H1387       H  0.32265693  0.71381098  0.58237107     0.14700
H1388       H  0.45917738  0.85847192  0.54354850     0.14700
C1389       C  0.38701722  0.87022098  0.55590327     0.36400
C1390       C  0.39212511  0.70016349  0.56922104     0.36300
N1391       N  0.38538538  0.90428343  0.55230057    -0.44000
N1392       N  0.39097909  0.66451053  0.57166371    -0.44000
loop_ 
_geom_bond_atom_site_label_1 
_geom_bond_atom_site_label_2 
_geom_bond_distance 
_geom_bond_site_symmetry_2 
_ccdc_geom_bond_type 
Fe1          O17   2.045       .  S
Fe1           O7   2.086       .  S
Fe1          O14   2.090       .  S
Fe1           O6   2.030       .  S
Fe1          O12   1.932       .  S
Fe2           O5   2.036       .  S
Fe2           O9   2.095       .  S
Fe2          O13   2.050       .  S
Fe2          O18   2.077       .  S
Fe2          O12   1.935       .  S
Fe3          O21   2.115       .  S
Fe3           O8   2.062       .  S
Fe3          O15   2.061       .  S
Fe3           O4   2.116       .  S
Fe3          O12   1.945       .  S
O4           C11   1.278       .  A
O5           C19   1.268       .  A
O6           C11   1.265       .  A
O7           C10   1.273       .  A
O8           C20   1.270       .  A
O9           C22   1.275       .  A
C10          O15   1.270       .  A
C10         C637   1.478       .  S
C11         C649   1.477       .  S
O13          C16   1.266       .  A
O14          C16   1.274       .  A
C16         C685   1.473       .  S
O17          C22   1.266       .  A
O18          C20   1.271       .  A
C19          O21   1.279       .  A
C19         C661   1.475       .  S
C20         C625   1.475       .  S
C22         C676   1.484       .  S
Fe23         O39   2.036       .  S
Fe23         O29   2.084       .  S
Fe23         O36   2.088       .  S
Fe23         O28   2.031       .  S
Fe23         O34   1.940       .  S
Fe24         O27   2.033       .  S
Fe24         O31   2.093       .  S
Fe24         O35   2.045       .  S
Fe24         O40   2.083       .  S
Fe24         O34   1.939       .  S
Fe25         O43   2.112       .  S
Fe25         O30   2.042       .  S
Fe25         O37   2.042       .  S
Fe25         O26   2.111       .  S
Fe25         O34   1.949       .  S
O26          C33   1.277       .  A
O27          C41   1.268       .  A
O28          C33   1.266       .  A
O29          C32   1.272       .  A
O30          C42   1.267       .  A
O31          C44   1.274       .  A
C32          O37   1.267       .  A
C32         C592   1.471       .  S
C33         C664   1.474       .  S
O35          C38   1.266       .  A
O36          C38   1.274       .  A
C38         C613   1.473       .  S
O39          C44   1.264       .  A
O40          C42   1.271       .  A
C41          O43   1.277       .  A
C41         C652   1.474       .  S
C42         C577   1.476       .  S
C44         C604   1.473       .  S
Fe45         O61   2.037       .  S
Fe45         O51   2.082       .  S
Fe45         O58   2.091       .  S
Fe45         O50   2.028       .  S
Fe45         O56   1.941       .  S
Fe46         O49   2.038       .  S
Fe46         O53   2.096       .  S
Fe46         O57   2.047       .  S
Fe46         O62   2.082       .  S
Fe46         O56   1.939       .  S
Fe47         O65   2.111       .  S
Fe47         O52   2.051       .  S
Fe47         O59   2.050       .  S
Fe47         O48   2.121       .  S
Fe47         O56   1.945       .  S
O48          C55   1.280       .  A
O49          C63   1.267       .  A
O50          C55   1.267       .  A
O51          C54   1.270       .  A
O52          C64   1.269       .  A
O53          C66   1.277       .  A
C54          O59   1.266       .  A
C54         C532   1.476       .  S
C55         C556   1.478       .  S
O57          C60   1.265       .  A
O58          C60   1.272       .  A
C60         C673   1.483       .  S
O61          C66   1.266       .  A
O62          C64   1.273       .  A
C63          O65   1.278       .  A
C63         C541   1.476       .  S
C64         C520   1.482       .  S
C66         C565   1.479       .  S
Fe67         O83   2.035       .  S
Fe67         O73   2.087       .  S
Fe67         O80   2.081       .  S
Fe67         O72   2.035       .  S
Fe67         O78   1.942       .  S
Fe68         O71   2.045       .  S
Fe68         O75   2.097       .  S
Fe68         O79   2.055       .  S
Fe68         O84   2.093       .  S
Fe68         O78   1.949       .  S
Fe69         O87   2.111       .  S
Fe69         O74   2.035       .  S
Fe69         O81   2.045       .  S
Fe69         O70   2.108       .  S
Fe69         O78   1.948       .  S
O70         C773   1.275       .  A
O71          C85   1.267       .  A
O72         C773   1.266       .  A
O73          C76   1.273       .  A
O74          C86   1.266       .  A
O75          C88   1.276       .  A
C76          O81   1.268       .  A
C76         C481   1.474       .  S
C77         O766   1.275   1_554  A
C77         O768   1.266   1_554  A
C77         C553   1.476       .  S
O79          C82   1.267       .  A
O80          C82   1.272       .  A
C82         C505   1.479       .  S
O83          C88   1.266       .  A
O84          C86   1.274       .  A
C85          O87   1.277       .  A
C85         C544   1.477       .  S
C86         C493   1.485       .  S
C88         C601   1.471       .  S
Fe89         O95   2.075       .  S
Fe89        O102   2.077       .  S
Fe89         O94   2.036       .  S
Fe89        O801   2.056       .  S
Fe89        O796   1.944       .  S
Fe90         O93   2.041       .  S
Fe90         O97   2.081       .  S
Fe90        O101   2.057       .  S
Fe90        O106   2.075       .  S
Fe90        O100   1.942       .  S
Fe91        O109   2.109       .  S
Fe91         O96   2.044       .  S
Fe91        O103   2.049       .  S
Fe91        O788   2.112   1_554  S
Fe91        O100   1.952       .  S
O92        Fe787   2.111       .  S
O92          C99   1.277       .  A
O93         C107   1.267       .  A
O94          C99   1.268       .  A
O95         C794   1.270       .  A
O96         C108   1.266       .  A
O97         C110   1.273       .  A
C98         O103   1.266       .  A
C98         O791   1.270   1_554  A
C98         C445   1.470       .  S
C99         C457   1.475       .  S
O100       Fe785   1.944   1_554  S
O101        C800   1.267   1_554  A
O102        C104   1.271       .  A
C104        O797   1.267       .  A
C104        C508   1.479       .  S
O105       Fe785   2.056   1_554  S
O105        C110   1.270       .  A
O106        C108   1.271       .  A
C107        O109   1.277       .  A
C107        C469   1.476       .  S
C108        C433   1.475       .  S
C110        C688   1.488       .  S
Fe111       O127   2.045       .  S
Fe111       O117   2.073       .  S
Fe111       O124   2.087       .  S
Fe111       O116   2.039       .  S
Fe111       O122   1.944       .  S
Fe112       O115   2.034       .  S
Fe112       O119   2.085       .  S
Fe112       O123   2.042       .  S
Fe112       O128   2.076       .  S
Fe112       O122   1.941       .  S
Fe113       O131   2.114       .  S
Fe113       O118   2.070       .  S
Fe113       O125   2.067       .  S
Fe113       O114   2.116       .  S
Fe113       O122   1.949       .  S
O114        C121   1.279       .  A
O115        C129   1.267       .  A
O116        C121   1.268       .  A
O117        C120   1.270       .  A
O118        C130   1.271       .  A
O119        C132   1.272       .  A
C120        O125   1.270       .  A
C120        C421   1.471       .  S
C121        C472   1.481       .  S
O123        C126   1.266       .  A
O124        C126   1.273       .  A
C126        C568   1.476       .  S
O127        C132   1.266       .  A
O128        C130   1.271       .  A
C129        O131   1.278       .  A
C129        C460   1.477       .  S
C130        C409   1.483       .  S
C132        C616   1.483       .  S
Fe133       O149   2.051       .  S
Fe133       O139   2.088       .  S
Fe133       O146   2.083       .  S
Fe133       O138   2.034       .  S
Fe133       O144   1.958       .  S
Fe134       O137   2.037       .  S
Fe134       O141   2.078       .  S
Fe134       O145   2.046       .  S
Fe134       O150   2.087       .  S
Fe134       O144   1.958       .  S
Fe135       O153   2.118       .  S
Fe135       O140   2.044       .  S
Fe135       O147   2.047       .  S
Fe135       O136   2.110       .  S
Fe135       O144   1.964       .  S
O136        C143   1.276       .  A
O137        C151   1.267       .  A
O138        C143   1.265       .  A
O139        C142   1.274       .  A
O140        C152   1.266       .  A
O141        C154   1.271       .  A
C142        O147   1.268       .  A
C142        C517   1.481       .  S
C143        C373   1.479       .  S
O145        C148   1.268       .  A
O146        C148   1.273       .  A
C148        C397   1.472       .  S
O149        C154   1.267       .  A
O150        C152   1.271       .  A
C151        O153   1.278       .  A
C151        C364   1.481       .  S
C152        C424   1.479       .  S
C154        C385   1.474       .  S
Fe155       O171   2.043       .  S
Fe155       O161   2.085       .  S
Fe155       O168   2.100       .  S
Fe155       O160   2.038       .  S
Fe155       O166   1.939       .  S
Fe156       O159   2.033       .  S
Fe156       O163   2.087       .  S
Fe156       O172   2.072       .  S
Fe156       O863   2.039   1_554  S
Fe156       O862   1.937   1_554  S
Fe157       O162   2.055       .  S
Fe157       O169   2.051       .  S
Fe157       O158   2.120       .  S
Fe157       O871   2.123       .  S
Fe157       O166   1.944       .  S
O158        C165   1.280       .  A
O159        C173   1.269       .  A
O160        C165   1.268       .  A
O161        C164   1.273       .  A
O162        C174   1.267       .  A
O163        C176   1.273       .  A
C164        O169   1.268       .  A
C164        C484   1.484       .  S
C165        C361   1.484       .  S
O166       Fe852   1.937       .  S
O167       Fe852   2.039       .  S
O167        C170   1.266       .  A
O168        C170   1.276       .  A
C170        C352   1.482       .  S
O171        C872   1.265       .  A
O172        C870   1.270   1_554  A
C173        O175   1.281       .  A
C173        C376   1.484       .  S
C174        O868   1.269       .  A
C174        C448   1.470       .  S
O175       Fe853   2.124   1_554  S
C176        O867   1.265   1_554  A
C176        C340   1.478       .  S
Fe177       O193   2.053       .  S
Fe177       O183   2.070       .  S
Fe177       O190   2.085       .  S
Fe177       O182   2.038       .  S
Fe177       O188   1.943       .  S
Fe178       O181   2.029       .  S
Fe178       O185   2.079       .  S
Fe178       O189   2.046       .  S
Fe178       O194   2.076       .  S
Fe178       O188   1.938       .  S
Fe179       O197   2.117       .  S
Fe179       O184   2.060       .  S
Fe179       O191   2.051       .  S
Fe179       O180   2.114       .  S
Fe179       O188   1.950       .  S
O180        C883   1.279   1_554  A
O181        C195   1.267       .  A
O182        C883   1.268   1_554  A
O183        C186   1.269       .  A
O184        C196   1.268       .  A
O185        C198   1.271       .  A
C186        O191   1.266       .  A
C186        C436   1.461       .  S
C187        O876   1.279       .  A
C187        O878   1.268       .  A
C187        C304   1.479       .  S
O189        C192   1.269       .  A
O190        C192   1.274       .  A
C192        C337   1.480       .  S
O193        C198   1.266       .  A
O194        C196   1.270       .  A
C195        O197   1.278       .  A
C195        C313   1.475       .  S
C196        C640   1.477       .  S
C198        C325   1.483       .  S
Fe199       O215   2.039       .  S
Fe199       O205   2.089       .  S
Fe199       O212   2.089       .  S
Fe199       O204   2.037       .  S
Fe199       O210   1.939       .  S
Fe200       O203   2.032       .  S
Fe200       O207   2.103       .  S
Fe200       O211   2.039       .  S
Fe200       O216   2.098       .  S
Fe200       O210   1.937       .  S
Fe201       O219   2.114       .  S
Fe201       O206   2.050       .  S
Fe201       O213   2.043       .  S
Fe201       O202   2.112       .  S
Fe201       O210   1.943       .  S
O202        C209   1.276       .  A
O203        C217   1.266       .  A
O204        C209   1.266       .  A
O205        C208   1.274       .  A
O206        C218   1.268       .  A
O207        C220   1.276       .  A
C208        O213   1.268       .  A
C208        C589   1.479       .  S
C209        C301   1.475       .  S
O211        C214   1.265       .  A
O212        C214   1.275       .  A
C214        C289   1.475       .  S
O215        C220   1.265       .  A
O216        C218   1.274       .  A
C217        O219   1.277       .  A
C217        C316   1.476       .  S
C218        C412   1.475       .  S
C220        C388   1.480       .  S
Fe221       O237   2.045       .  S
Fe221       O227   2.088       .  S
Fe221       O234   2.082       .  S
Fe221       O226   2.034       .  S
Fe221       O232   1.940       .  S
Fe222       O225   2.039       .  S
Fe222       O229   2.089       .  S
Fe222       O233   2.050       .  S
Fe222       O238   2.079       .  S
Fe222       O232   1.939       .  S
Fe223       O241   2.114       .  S
Fe223       O228   2.055       .  S
Fe223       O235   2.053       .  S
Fe223       O224   2.116       .  S
Fe223       O232   1.949       .  S
O224        C231   1.277       .  A
O225        C239   1.266       .  A
O226        C231   1.266       .  A
O227        C230   1.274       .  A
O228        C240   1.269       .  A
O229        C242   1.275       .  A
C230        O235   1.269       .  A
C230        C628   1.477       .  S
C231        C277   1.478       .  S
O233        C236   1.265       .  A
O234        C236   1.273       .  A
C236        C328   1.474       .  S
O237        C242   1.268       .  A
O238        C240   1.271       .  A
C239        O241   1.277       .  A
C239        C265   1.478       .  S
C240        C529   1.470       .  S
C242        C400   1.477       .  S
Fe243       O259   2.039       .  S
Fe243       O249   2.080       .  S
Fe243       O256   2.089       .  S
Fe243       O248   2.031       .  S
Fe243       O254   1.944       .  S
Fe244       O247   2.040       .  S
Fe244       O251   2.096       .  S
Fe244       O255   2.039       .  S
Fe244       O260   2.077       .  S
Fe244       O254   1.941       .  S
Fe245       O263   2.110       .  S
Fe245       O250   2.046       .  S
Fe245       O257   2.043       .  S
Fe245       O246   2.115       .  S
Fe245       O254   1.948       .  S
O246        C253   1.278       .  A
O247        C261   1.269       .  A
O248        C253   1.267       .  A
O249        C252   1.270       .  A
O250        C262   1.267       .  A
O251        C264   1.276       .  A
C252        O257   1.265       .  A
C252        C580   1.471       .  S
C253        C268   1.472       .  S
O255        C258   1.264       .  A
O256        C258   1.273       .  A
C258        C292   1.477       .  S
O259        C264   1.267       .  A
O260        C262   1.270       .  A
C261        O263   1.278       .  A
C261        C280   1.480       .  S
C262        C496   1.469       .  S
C264        C349   1.481       .  S
C265        C266   1.404       .  A
C265        C270   1.414       .  A
C266        C267   1.409       .  A
C266        H271   1.084       .  S
C267        C268   1.414       .  A
C267        C274   1.443       .  S
C268        C269   1.397       .  A
C269        C270   1.394       .  A
C269        H272   1.086       .  S
C270        C273   1.444       .  S
C273        N275   1.157       .  T
C274        N276   1.157       .  T
C277        C278   1.400       .  A
C277        C282   1.414       .  A
C278        C279   1.395       .  A
C278        H283   1.085       .  S
C279        C976   1.413   1_554  A
C279        C982   1.446   1_554  S
C280        C975   1.413       .  A
C280        C977   1.404       .  A
C281        C282   1.410       .  A
C281        C976   1.404   1_554  A
C281        H980   1.084   1_554  S
C282        C285   1.442       .  S
H284        C977   1.084       .  S
C285        N287   1.157       .  T
C286        C975   1.446       .  S
C286        N288   1.157       .  T
C289        C290   1.402       .  A
C289        C294   1.413       .  A
C290        C291   1.396       .  A
C290        H295   1.085       .  S
C291        C292   1.414       .  A
C291        C298   1.444       .  S
C292        C293   1.405       .  A
C293        C294   1.399       .  A
C293        H296   1.085       .  S
C294        C297   1.445       .  S
C297        N299   1.157       .  T
C298        N300   1.157       .  T
C301        C302   1.399       .  A
C301        C306   1.414       .  A
C302        C303   1.396       .  A
C302        H307   1.085       .  S
C303        C304   1.414       .  A
C303        C310   1.445       .  S
C304        C305   1.404       .  A
C305        C306   1.409       .  A
C305        H308   1.084       .  S
C306        C309   1.444       .  S
C309        N311   1.157       .  T
C310        N312   1.157       .  T
C313        C314   1.400       .  A
C313        C318   1.413       .  A
C314        C315   1.393       .  A
C314        H319   1.086       .  S
C315        C316   1.413       .  A
C315        C322   1.446       .  S
C316        C317   1.404       .  A
C317        C318   1.409       .  A
C317        H320   1.084       .  S
C318        C321   1.442       .  S
C321        N323   1.157       .  T
C322        N324   1.157       .  T
C325        C326   1.408       .  A
C325        C330   1.417       .  A
C326        C327   1.403       .  A
C326        H331   1.085       .  S
C327        C328   1.411       .  A
C327        C334   1.444       .  S
C328        C329   1.400       .  A
C329        C330   1.395       .  A
C329        H332   1.086       .  S
C330        C333   1.445       .  S
C333        N335   1.157       .  T
C334        N336   1.157       .  T
C337        C338   1.405       .  A
C337        C342   1.416       .  A
C338       C1035   1.399       .  A
C338       H1039   1.085       .  S
C339       C1034   1.399       .  A
C339       C1036   1.412       .  A
C339        C346   1.444       .  S
C340        C341   1.404       .  A
C340       C1035   1.412       .  A
C341        C342   1.397       .  A
C341        H344   1.085       .  S
C342        C345   1.446       .  S
H343       C1034   1.085       .  S
C345        N347   1.158       .  T
C346        N348   1.157       .  T
C349        C350   1.405       .  A
C349        C354   1.413       .  A
C350        C351   1.400       .  A
C350        H355   1.085       .  S
C351        C352   1.415       .  A
C351        C358   1.445       .  S
C352        C353   1.406       .  A
C353        C354   1.399       .  A
C353        H356   1.085       .  S
C354        C357   1.445       .  S
C357        N359   1.157       .  T
C358        N360   1.157       .  T
C361        C362   1.405       .  A
C361        C366   1.414       .  A
C362        C363   1.411       .  A
C362        H367   1.084       .  S
C363        C364   1.414       .  A
C363        C370   1.443       .  S
C364        C365   1.401       .  A
C365        C366   1.397       .  A
C365        H368   1.085       .  S
C366        C369   1.446       .  S
C369        N371   1.157       .  T
C370        N372   1.157       .  T
C373        C374   1.408       .  A
C373        C378   1.410       .  A
C374        C375   1.411       .  A
C374        H379   1.084       .  S
C375        C376   1.411       .  A
C375        C382   1.442       .  S
C376        C377   1.405       .  A
C377        C378   1.396       .  A
C377        H380   1.085       .  S
C378        C381   1.446       .  S
C381        N383   1.157       .  T
C382        N384   1.157       .  T
C385        C386   1.399       .  A
C385        C390   1.414       .  A
C386        C387   1.400       .  A
C386        H391   1.085       .  S
C387        C388   1.417       .  A
C387        C394   1.445       .  S
C388        C389   1.402       .  A
C389        C390   1.401       .  A
C389        H392   1.085       .  S
C390        C393   1.445       .  S
C393        N395   1.157       .  T
C394        N396   1.157       .  T
C397        C398   1.400       .  A
C397        C402   1.412       .  A
C398        C399   1.400       .  A
C398        H403   1.084       .  S
C399        C400   1.416       .  A
C399        C406   1.445       .  S
C400        C401   1.402       .  A
C401        C402   1.398       .  A
C401        H404   1.085       .  S
C402        C405   1.445       .  S
C405        N407   1.157       .  T
C406        N408   1.157       .  T
C409        C410   1.407       .  A
C409        C414   1.412       .  A
C410        C411   1.400       .  A
C410        H415   1.085       .  S
C411        C412   1.409       .  A
C411        C418   1.444       .  S
C412        C413   1.404       .  A
C413        C414   1.403       .  A
C413        H416   1.085       .  S
C414        C417   1.444       .  S
C417        N419   1.157       .  T
C418        N420   1.157       .  T
C421        C422   1.400       .  A
C421        C426   1.409       .  A
C422        C423   1.395   1_565  A
C422        H427   1.084       .  S
C423        C424   1.413       .  A
C423        C430   1.445       .  S
C424        C425   1.407       .  A
C425        C426   1.404   1_545  A
C425        H428   1.085       .  S
C426        C429   1.443       .  S
C429        N431   1.157       .  T
C430        N432   1.157       .  T
C433        C434   1.407       .  A
C433        C438   1.414       .  A
C434        C435   1.398       .  A
C434        H439   1.085       .  S
C435        C436   1.405       .  A
C435        C442   1.444       .  S
C436        C437   1.399       .  A
C437        C438   1.395       .  A
C437        H440   1.085       .  S
C438       C1137   1.445   1_554  S
C441       C1134   1.445       .  S
C441        N443   1.157       .  T
C442        N444   1.157       .  T
C445        C450   1.409       .  A
C445       C1142   1.405   1_554  A
C446        C447   1.399   1_565  A
C446       C1141   1.405       .  A
C446        H451   1.085       .  S
C447        C448   1.409       .  A
C447        C454   1.444       .  S
C448       C1145   1.405       .  A
C449        C450   1.397   1_545  A
C449       C1144   1.405   1_554  A
C449        H452   1.085       .  S
C450        C453   1.445       .  S
C453        N455   1.157       .  T
C454        N456   1.157       .  T
C457        C458   1.407       .  A
C457        C462   1.409       .  A
C458        C459   1.409       .  A
C458        H463   1.085       .  S
C459        C460   1.410       .  A
C459        C466   1.442       .  S
C460        C461   1.403       .  A
C461        C462   1.394       .  A
C461        H464   1.086       .  S
C462        C465   1.446       .  S
C465        N467   1.157       .  T
C466        N468   1.157       .  T
C469        C470   1.399       .  A
C469        C474   1.413       .  A
C470        C471   1.397       .  A
C470        H475   1.085       .  S
C471        C472   1.414       .  A
C471        C478   1.445       .  S
C472        C473   1.404       .  A
C473        C474   1.409       .  A
C473        H476   1.084       .  S
C474        C477   1.443       .  S
C477        N479   1.157       .  T
C478        N480   1.157       .  T
C481        C482   1.400       .  A
C481        C486   1.409       .  A
C482        C483   1.395   1_455  A
C482        H487   1.085       .  S
C483        C484   1.416       .  A
C483        C490   1.445       .  S
C484        C485   1.408       .  A
C485        C486   1.404   1_655  A
C485        H488   1.085       .  S
C486        C489   1.444       .  S
C489        N491   1.157       .  T
C490        N492   1.157       .  T
C493        C494   1.407       .  A
C493        C498   1.417       .  A
C494        C495   1.390       .  A
C494        H499   1.085       .  S
C495        C496   1.407       .  A
C495        C502   1.446       .  S
C496        C497   1.403       .  A
C497        C498   1.405       .  A
C497        H500   1.085       .  S
C498        C501   1.443       .  S
C501        N503   1.157       .  T
C502        N504   1.157       .  T
C505        C506   1.402       .  A
C505        C510   1.413       .  A
C506        C507   1.395       .  A
C506        H511   1.084       .  S
C507        C508   1.414       .  A
C507        C514   1.446       .  S
C508       C1205   1.406       .  A
C509       C1204   1.406       .  A
C509       C1206   1.404       .  A
C509        H512   1.085       .  S
C510       C1205   1.404       .  A
C510       C1209   1.444       .  S
C513       C1206   1.444       .  S
C513        N515   1.157       .  T
C514        N516   1.157       .  T
C517        C518   1.405       .  A
C517        C522   1.414       .  A
C518        C519   1.405   1_655  A
C518        H523   1.084       .  S
C519        C520   1.414       .  A
C519        C526   1.444       .  S
C520        C521   1.403       .  A
C521        C522   1.396   1_455  A
C521        H524   1.085       .  S
C522        C525   1.446       .  S
C525        N527   1.157       .  T
C526        N528   1.157       .  T
C529        C530   1.401       .  A
C529        C534   1.407       .  A
C530        C531   1.397       .  A
C530        H535   1.083       .  S
C531        C532   1.411       .  A
C531        C538   1.444       .  S
C532        C533   1.407       .  A
C533        C534   1.400       .  A
C533        H536   1.085       .  S
C534        C537   1.444       .  S
C537        N539   1.157       .  T
C538        N540   1.157       .  T
C541        C542   1.399       .  A
C541        C546   1.413       .  A
C542        C543   1.403       .  A
C542        H547   1.084       .  S
C543        C544   1.414       .  A
C543        C550   1.443       .  S
C544        C545   1.401       .  A
C545        C546   1.403       .  A
C545        H548   1.085       .  S
C546        C549   1.445       .  S
C549        N551   1.157       .  T
C550        N552   1.157       .  T
C553        C554   1.400       .  A
C553        C558   1.414       .  A
C554        C555   1.393       .  A
C554        H559   1.086       .  S
C555        C556   1.414       .  A
C555        C562   1.446       .  S
C556        C557   1.404       .  A
C557        C558   1.409       .  A
C557        H560   1.084       .  S
C558        C561   1.442       .  S
C561        N563   1.157       .  T
C562        N564   1.157       .  T
C565        C566   1.404       .  A
C565        C570   1.415       .  A
C566        C567   1.396       .  A
C566        H571   1.085       .  S
C567        C568   1.413       .  A
C567        C574   1.445       .  S
C568        C569   1.404       .  A
C569        C570   1.399       .  A
C569        H572   1.085       .  S
C570        C573   1.445       .  S
C573        N575   1.157       .  T
C574        N576   1.157       .  T
C577        C578   1.403       .  A
C577        C582   1.413       .  A
C578        C579   1.393   1_565  A
C578        H583   1.085       .  S
C579        C580   1.411       .  A
C579        C586   1.446       .  S
C580        C581   1.403       .  A
C581        C582   1.403   1_545  A
C581        H584   1.085       .  S
C582        C585   1.443       .  S
C585        N587   1.157       .  T
C586        N588   1.157       .  T
C589        C590   1.407       .  A
C589        C594   1.415       .  A
C590        C591   1.404   1_655  A
C590        H595   1.084       .  S
C591        C592   1.410       .  A
C591        C598   1.444       .  S
C592        C593   1.400       .  A
C593        C594   1.392   1_455  A
C593        H596   1.086       .  S
C594        C597   1.446       .  S
C597        N599   1.157       .  T
C598        N600   1.157       .  T
C601        C602   1.399       .  A
C601        C606   1.414       .  A
C602        C603   1.399       .  A
C602        H607   1.085       .  S
C603        C604   1.416       .  A
C603        C610   1.445       .  S
C604        C605   1.400       .  A
C605        C606   1.398       .  A
C605        H608   1.085       .  S
C606        C609   1.445       .  S
C609        N611   1.157       .  T
C610        N612   1.157       .  T
C613        C614   1.401       .  A
C613        C618   1.409       .  A
C614        C615   1.397       .  A
C614        H619   1.086       .  S
C615        C616   1.417       .  A
C615        C622   1.445       .  S
C616        C617   1.407       .  A
C617        C618   1.400       .  A
C617        H620   1.085       .  S
C618        C621   1.444       .  S
C621        N623   1.157       .  T
C622        N624   1.157       .  T
C625        C626   1.405       .  A
C625        C630   1.410       .  A
C626        C627   1.399   1_565  A
C626        H631   1.085       .  S
C627        C628   1.410       .  A
C627        C634   1.444       .  S
C628        C629   1.405       .  A
C629        C630   1.401   1_545  A
C629        H632   1.084       .  S
C630        C633   1.444       .  S
C633        N635   1.157       .  T
C634        N636   1.157       .  T
C637        C638   1.406       .  A
C637        C642   1.409       .  A
C638        C639   1.402   1_455  A
C638        H643   1.084       .  S
C639        C640   1.410       .  A
C639        C646   1.444       .  S
C640        C641   1.403       .  A
C641        C642   1.398   1_655  A
C641        H644   1.084       .  S
C642        C645   1.442       .  S
C645        N647   1.156       .  T
C646        N648   1.157       .  T
C649       C1346   1.404   1_554  A
C649       C1350   1.415   1_554  A
C650        C651   1.409       .  A
C650       C1345   1.404       .  A
C650       H1351   1.084       .  S
C651        C652   1.414       .  A
C651        C658   1.443       .  S
C652        C653   1.398       .  A
C653        C654   1.392       .  A
C653        H656   1.086       .  S
C654       C1345   1.415       .  A
C654       C1353   1.446       .  S
H655       C1346   1.084   1_554  S
C657       C1350   1.446   1_554  S
C657        N659   1.157       .  T
C658        N660   1.157       .  T
C661        C662   1.409       .  A
C661        C666   1.409       .  A
C662        C663   1.410       .  A
C662        H667   1.085       .  S
C663        C664   1.409       .  A
C663        C670   1.443       .  S
C664        C665   1.402       .  A
C665        C666   1.393       .  A
C665        H668   1.086       .  S
C666        C669   1.445       .  S
C669        N671   1.157       .  T
C670        N672   1.157       .  T
C673        C674   1.405       .  A
C673        C678   1.415       .  A
C674        C675   1.401       .  A
C674        H679   1.085       .  S
C675        C676   1.414       .  A
C675        C682   1.444       .  S
C676        C677   1.405       .  A
C677        C678   1.399       .  A
C677        H680   1.085       .  S
C678        C681   1.445       .  S
C681        N683   1.157       .  T
C682        N684   1.157       .  T
C685        C686   1.399       .  A
C685        C690   1.409       .  A
C686        C687   1.396       .  A
C686        H691   1.086       .  S
C687        C688   1.420       .  A
C687        C694   1.445       .  S
C688        C689   1.409       .  A
C689        C690   1.403       .  A
C689        H692   1.084       .  S
C690        C693   1.444       .  S
C693        N695   1.157       .  T
C694        N696   1.157       .  T
Fe697       O713   2.045       .  S
Fe697       O703   2.086       .  S
Fe697       O710   2.090       .  S
Fe697       O702   2.030       .  S
Fe697       O708   1.933       .  S
Fe698       O701   2.037       .  S
Fe698       O705   2.095       .  S
Fe698       O709   2.051       .  S
Fe698       O714   2.078       .  S
Fe698       O708   1.935       .  S
Fe699       O717   2.115       .  S
Fe699       O704   2.062       .  S
Fe699       O711   2.061       .  S
Fe699       O700   2.116       .  S
Fe699       O708   1.946       .  S
O700        C707   1.278       .  A
O701        C715   1.269       .  A
O702        C707   1.265       .  A
O703        C706   1.273       .  A
O704        C716   1.270       .  A
O705        C718   1.275       .  A
C706        O711   1.270       .  A
C706       C1333   1.478       .  S
C707       C1345   1.477       .  S
O709        C712   1.267       .  A
O710        C712   1.274       .  A
C712       C1381   1.472       .  S
O713        C718   1.266       .  A
O714        C716   1.271       .  A
C715        O717   1.279       .  A
C715       C1357   1.475       .  S
C716       C1321   1.475       .  S
C718       C1372   1.484       .  S
Fe719       O735   2.035       .  S
Fe719       O725   2.084       .  S
Fe719       O732   2.088       .  S
Fe719       O724   2.031       .  S
Fe719       O730   1.940       .  S
Fe720       O723   2.033       .  S
Fe720       O727   2.093       .  S
Fe720       O731   2.045       .  S
Fe720       O736   2.083       .  S
Fe720       O730   1.939       .  S
Fe721       O739   2.112       .  S
Fe721       O726   2.042       .  S
Fe721       O733   2.042       .  S
Fe721       O722   2.112       .  S
Fe721       O730   1.949       .  S
O722        C729   1.277       .  A
O723        C737   1.268       .  A
O724        C729   1.266       .  A
O725        C728   1.272       .  A
O726        C738   1.267       .  A
O727        C740   1.274       .  A
C728        O733   1.267       .  A
C728       C1288   1.470       .  S
C729       C1360   1.475       .  S
O731        C734   1.266       .  A
O732        C734   1.274       .  A
C734       C1309   1.473       .  S
O735        C740   1.264       .  A
O736        C738   1.271       .  A
C737        O739   1.277       .  A
C737       C1348   1.475       .  S
C738       C1273   1.476       .  S
C740       C1300   1.473       .  S
Fe741       O757   2.036       .  S
Fe741       O747   2.081       .  S
Fe741       O754   2.091       .  S
Fe741       O746   2.028       .  S
Fe741       O752   1.941       .  S
Fe742       O745   2.039       .  S
Fe742       O749   2.095       .  S
Fe742       O753   2.047       .  S
Fe742       O758   2.082       .  S
Fe742       O752   1.939       .  S
Fe743       O761   2.111       .  S
Fe743       O748   2.052       .  S
Fe743       O755   2.050       .  S
Fe743       O744   2.121       .  S
Fe743       O752   1.945       .  S
O744        C751   1.281       .  A
O745        C759   1.267       .  A
O746        C751   1.267       .  A
O747        C750   1.270       .  A
O748        C760   1.270       .  A
O749        C762   1.277       .  A
C750        O755   1.266       .  A
C750       C1228   1.476       .  S
C751       C1252   1.478       .  S
O753        C756   1.265       .  A
O754        C756   1.272       .  A
C756       C1369   1.483       .  S
O757        C762   1.266       .  A
O758        C760   1.273       .  A
C759        O761   1.278       .  A
C759       C1237   1.476       .  S
C760       C1216   1.483       .  S
C762       C1261   1.478       .  S
Fe763       O779   2.035       .  S
Fe763       O769   2.087       .  S
Fe763       O776   2.081       .  S
Fe763       O768   2.035       .  S
Fe763       O774   1.942       .  S
Fe764       O767   2.045       .  S
Fe764       O771   2.098       .  S
Fe764       O775   2.055       .  S
Fe764       O780   2.093       .  S
Fe764       O774   1.948       .  S
Fe765       O783   2.111       .  S
Fe765       O770   2.034       .  S
Fe765       O777   2.045       .  S
Fe765       O766   2.108       .  S
Fe765       O774   1.948       .  S
O767        C781   1.267       .  A
O769        C772   1.273       .  A
O770        C782   1.266       .  A
O771        C784   1.277       .  A
C772        O777   1.268       .  A
C772       C1177   1.474       .  S
C773       C1249   1.476       .  S
O775        C778   1.267       .  A
O776        C778   1.273       .  A
C778       C1201   1.479       .  S
O779        C784   1.266       .  A
O780        C782   1.274       .  A
C781        O783   1.277       .  A
C781       C1240   1.477       .  S
C782       C1189   1.485       .  S
C784       C1297   1.471       .  S
Fe785       O791   2.075       .  S
Fe785       O798   2.077       .  S
Fe785       O790   2.036       .  S
Fe786       O789   2.042       .  S
Fe786       O793   2.081       .  S
Fe786       O797   2.057       .  S
Fe786       O802   2.074       .  S
Fe786       O796   1.942       .  S
Fe787       O805   2.109       .  S
Fe787       O792   2.043       .  S
Fe787       O799   2.049       .  S
Fe787       O796   1.952       .  S
O788        C795   1.277       .  A
O789        C803   1.267       .  A
O790        C795   1.268       .  A
O792        C804   1.266       .  A
O793        C806   1.273       .  A
C794        O799   1.266       .  A
C794       C1141   1.470       .  S
C795       C1153   1.475       .  S
O798        C800   1.271       .  A
C800       C1204   1.480       .  S
O801        C806   1.270       .  A
O802        C804   1.271       .  A
C803        O805   1.277       .  A
C803       C1165   1.476       .  S
C804       C1129   1.475       .  S
C806       C1384   1.488       .  S
Fe807       O823   2.045       .  S
Fe807       O813   2.072       .  S
Fe807       O820   2.087       .  S
Fe807       O812   2.039       .  S
Fe807       O818   1.943       .  S
Fe808       O811   2.034       .  S
Fe808       O815   2.086       .  S
Fe808       O819   2.041       .  S
Fe808       O824   2.076       .  S
Fe808       O818   1.941       .  S
Fe809       O827   2.115       .  S
Fe809       O814   2.070       .  S
Fe809       O821   2.067       .  S
Fe809       O810   2.116       .  S
Fe809       O818   1.949       .  S
O810        C817   1.279       .  A
O811        C825   1.267       .  A
O812        C817   1.268       .  A
O813        C816   1.270       .  A
O814        C826   1.271       .  A
O815        C828   1.272       .  A
C816        O821   1.270       .  A
C816       C1117   1.471       .  S
C817       C1168   1.481       .  S
O819        C822   1.266       .  A
O820        C822   1.273       .  A
C822       C1264   1.476       .  S
O823        C828   1.266       .  A
O824        C826   1.271       .  A
C825        O827   1.278       .  A
C825       C1156   1.477       .  S
C826       C1105   1.483       .  S
C828       C1312   1.482       .  S
Fe829       O845   2.051       .  S
Fe829       O835   2.088       .  S
Fe829       O842   2.083       .  S
Fe829       O834   2.034       .  S
Fe829       O840   1.958       .  S
Fe830       O833   2.036       .  S
Fe830       O837   2.079       .  S
Fe830       O841   2.046       .  S
Fe830       O846   2.087       .  S
Fe830       O840   1.958       .  S
Fe831       O849   2.118       .  S
Fe831       O836   2.044       .  S
Fe831       O843   2.048       .  S
Fe831       O832   2.110       .  S
Fe831       O840   1.965       .  S
O832        C839   1.275       .  A
O833        C847   1.267       .  A
O834        C839   1.265       .  A
O835        C838   1.274       .  A
O836        C848   1.266       .  A
O837        C850   1.271       .  A
C838        O843   1.268       .  A
C838       C1213   1.481       .  S
C839       C1069   1.479       .  S
O841        C844   1.268       .  A
O842        C844   1.273       .  A
C844       C1093   1.472       .  S
O845        C850   1.267       .  A
O846        C848   1.271       .  A
C847        O849   1.278       .  A
C847       C1060   1.480       .  S
C848       C1120   1.479       .  S
C850       C1081   1.473       .  S
Fe851       O867   2.044       .  S
Fe851       O857   2.085       .  S
Fe851       O864   2.099       .  S
Fe851       O856   2.038       .  S
Fe851       O862   1.940       .  S
Fe852       O855   2.033       .  S
Fe852       O859   2.087       .  S
Fe852       O868   2.072       .  S
Fe853       O858   2.055       .  S
Fe853       O865   2.051       .  S
Fe853       O854   2.120       .  S
Fe853       O862   1.944       .  S
O854        C861   1.280       .  A
O855        C869   1.268       .  A
O856        C861   1.268       .  A
O857        C860   1.273       .  A
O858        C870   1.267       .  A
O859        C872   1.273       .  A
C860        O865   1.268       .  A
C860       C1180   1.483       .  S
C861       C1057   1.484       .  S
O863        C866   1.266       .  A
O864        C866   1.276       .  A
C866       C1048   1.482       .  S
C869        O871   1.281       .  A
C869       C1072   1.483       .  S
C870       C1144   1.470       .  S
C872       C1036   1.478       .  S
Fe873       O889   2.053       .  S
Fe873       O879   2.069       .  S
Fe873       O886   2.085       .  S
Fe873       O878   2.039       .  S
Fe873       O884   1.943       .  S
Fe874       O877   2.029       .  S
Fe874       O881   2.079       .  S
Fe874       O885   2.045       .  S
Fe874       O890   2.076       .  S
Fe874       O884   1.938       .  S
Fe875       O893   2.118       .  S
Fe875       O880   2.060       .  S
Fe875       O887   2.051       .  S
Fe875       O876   2.113       .  S
Fe875       O884   1.950       .  S
O877        C891   1.267       .  A
O879        C882   1.268       .  A
O880        C892   1.268       .  A
O881        C894   1.271       .  A
C882        O887   1.266       .  A
C882       C1132   1.460       .  S
C883       C1000   1.479       .  S
O885        C888   1.269       .  A
O886        C888   1.274       .  A
C888       C1033   1.479       .  S
O889        C894   1.266       .  A
O890        C892   1.270       .  A
C891        O893   1.278       .  A
C891       C1009   1.476       .  S
C892       C1336   1.477       .  S
C894       C1021   1.483       .  S
Fe895       O911   2.039       .  S
Fe895       O901   2.089       .  S
Fe895       O908   2.089       .  S
Fe895       O900   2.036       .  S
Fe895       O906   1.939       .  S
Fe896       O899   2.032       .  S
Fe896       O903   2.104       .  S
Fe896       O907   2.039       .  S
Fe896       O912   2.099       .  S
Fe896       O906   1.937       .  S
Fe897       O915   2.115       .  S
Fe897       O902   2.050       .  S
Fe897       O909   2.042       .  S
Fe897       O898   2.113       .  S
Fe897       O906   1.942       .  S
O898        C905   1.277       .  A
O899        C913   1.266       .  A
O900        C905   1.266       .  A
O901        C904   1.274       .  A
O902        C914   1.268       .  A
O903        C916   1.277       .  A
C904        O909   1.267       .  A
C904       C1285   1.479       .  S
C905        C997   1.475       .  S
O907        C910   1.265       .  A
O908        C910   1.275       .  A
C910        C985   1.475       .  S
O911        C916   1.265       .  A
O912        C914   1.274       .  A
C913        O915   1.277       .  A
C913       C1012   1.477       .  S
C914       C1108   1.476       .  S
C916       C1084   1.481       .  S
Fe917       O933   2.045       .  S
Fe917       O923   2.088       .  S
Fe917       O930   2.082       .  S
Fe917       O922   2.034       .  S
Fe917       O928   1.940       .  S
Fe918       O921   2.039       .  S
Fe918       O925   2.089       .  S
Fe918       O929   2.050       .  S
Fe918       O934   2.078       .  S
Fe918       O928   1.939       .  S
Fe919       O937   2.114       .  S
Fe919       O924   2.056       .  S
Fe919       O931   2.054       .  S
Fe919       O920   2.116       .  S
Fe919       O928   1.948       .  S
O920        C927   1.277       .  A
O921        C935   1.266       .  A
O922        C927   1.266       .  A
O923        C926   1.274       .  A
O924        C936   1.269       .  A
O925        C938   1.275       .  A
C926        O931   1.270       .  A
C926       C1324   1.477       .  S
C927        C973   1.478       .  S
O929        C932   1.265       .  A
O930        C932   1.273       .  A
C932       C1024   1.474       .  S
O933        C938   1.268       .  A
O934        C936   1.271       .  A
C935        O937   1.277       .  A
C935        C961   1.478       .  S
C936       C1225   1.470       .  S
C938       C1096   1.477       .  S
Fe939       O955   2.039       .  S
Fe939       O945   2.081       .  S
Fe939       O952   2.090       .  S
Fe939       O944   2.031       .  S
Fe939       O950   1.944       .  S
Fe940       O943   2.041       .  S
Fe940       O947   2.096       .  S
Fe940       O951   2.039       .  S
Fe940       O956   2.076       .  S
Fe940       O950   1.941       .  S
Fe941       O959   2.110       .  S
Fe941       O946   2.046       .  S
Fe941       O953   2.043       .  S
Fe941       O942   2.116       .  S
Fe941       O950   1.948       .  S
O942        C949   1.278       .  A
O943        C957   1.269       .  A
O944        C949   1.267       .  A
O945        C948   1.270       .  A
O946        C958   1.267       .  A
O947        C960   1.276       .  A
C948        O953   1.265       .  A
C948       C1276   1.471       .  S
C949        C964   1.472       .  S
O951        C954   1.264       .  A
O952        C954   1.273       .  A
C954        C988   1.478       .  S
O955        C960   1.267       .  A
O956        C958   1.270       .  A
C957        O959   1.278       .  A
C957        C976   1.481       .  S
C958       C1192   1.468       .  S
C960       C1045   1.481       .  S
C961        C962   1.404       .  A
C961        C966   1.414       .  A
C962        C963   1.409       .  A
C962        H967   1.084       .  S
C963        C964   1.414       .  A
C963        C970   1.443       .  S
C964        C965   1.397       .  A
C965        C966   1.394       .  A
C965        H968   1.086       .  S
C966        C969   1.444       .  S
C969        N971   1.157       .  T
C970        N972   1.157       .  T
C973        C974   1.400       .  A
C973        C978   1.414       .  A
C974        C975   1.395       .  A
C974        H979   1.085       .  S
C977        C978   1.410       .  A
C978        C981   1.442       .  S
C981        N983   1.157       .  T
C982        N984   1.157       .  T
C985        C986   1.402       .  A
C985        C990   1.413       .  A
C986        C987   1.397       .  A
C986        H991   1.085       .  S
C987        C988   1.414       .  A
C987        C994   1.444       .  S
C988        C989   1.405       .  A
C989        C990   1.399       .  A
C989        H992   1.085       .  S
C990        C993   1.445       .  S
C993        N995   1.157       .  T
C994        N996   1.157       .  T
C997        C998   1.399       .  A
C997       C1002   1.414       .  A
C998        C999   1.396       .  A
C998       H1003   1.085       .  S
C999       C1000   1.414       .  A
C999       C1006   1.446       .  S
C1000      C1001   1.404       .  A
C1001      C1002   1.409       .  A
C1001      H1004   1.084       .  S
C1002      C1005   1.444       .  S
C1005      N1007   1.157       .  T
C1006      N1008   1.157       .  T
C1009      C1010   1.400       .  A
C1009      C1014   1.413       .  A
C1010      C1011   1.393       .  A
C1010      H1015   1.086       .  S
C1011      C1012   1.413       .  A
C1011      C1018   1.446       .  S
C1012      C1013   1.404       .  A
C1013      C1014   1.410       .  A
C1013      H1016   1.084       .  S
C1014      C1017   1.442       .  S
C1017      N1019   1.157       .  T
C1018      N1020   1.157       .  T
C1021      C1022   1.408       .  A
C1021      C1026   1.417       .  A
C1022      C1023   1.403       .  A
C1022      H1027   1.085       .  S
C1023      C1024   1.411       .  A
C1023      C1030   1.444       .  S
C1024      C1025   1.400       .  A
C1025      C1026   1.395       .  A
C1025      H1028   1.086       .  S
C1026      C1029   1.445       .  S
C1029      N1031   1.157       .  T
C1030      N1032   1.157       .  T
C1033      C1034   1.405       .  A
C1033      C1038   1.416       .  A
C1035      C1042   1.444       .  S
C1036      C1037   1.404       .  A
C1037      C1038   1.397       .  A
C1037      H1040   1.085       .  S
C1038      C1041   1.446       .  S
C1041      N1043   1.158       .  T
C1042      N1044   1.157       .  T
C1045      C1046   1.405       .  A
C1045      C1050   1.413       .  A
C1046      C1047   1.400       .  A
C1046      H1051   1.085       .  S
C1047      C1048   1.415       .  A
C1047      C1054   1.445       .  S
C1048      C1049   1.406       .  A
C1049      C1050   1.399       .  A
C1049      H1052   1.085       .  S
C1050      C1053   1.445       .  S
C1053      N1055   1.157       .  T
C1054      N1056   1.157       .  T
C1057      C1058   1.405       .  A
C1057      C1062   1.414       .  A
C1058      C1059   1.411       .  A
C1058      H1063   1.084       .  S
C1059      C1060   1.414       .  A
C1059      C1066   1.443       .  S
C1060      C1061   1.401       .  A
C1061      C1062   1.397       .  A
C1061      H1064   1.085       .  S
C1062      C1065   1.446       .  S
C1065      N1067   1.157       .  T
C1066      N1068   1.157       .  T
C1069      C1070   1.408       .  A
C1069      C1074   1.410       .  A
C1070      C1071   1.411       .  A
C1070      H1075   1.084       .  S
C1071      C1072   1.410       .  A
C1071      C1078   1.442       .  S
C1072      C1073   1.405       .  A
C1073      C1074   1.396       .  A
C1073      H1076   1.085       .  S
C1074      C1077   1.446       .  S
C1077      N1079   1.157       .  T
C1078      N1080   1.157       .  T
C1081      C1082   1.399       .  A
C1081      C1086   1.413       .  A
C1082      C1083   1.400       .  A
C1082      H1087   1.085       .  S
C1083      C1084   1.418       .  A
C1083      C1090   1.445       .  S
C1084      C1085   1.402       .  A
C1085      C1086   1.401       .  A
C1085      H1088   1.085       .  S
C1086      C1089   1.445       .  S
C1089      N1091   1.157       .  T
C1090      N1092   1.157       .  T
C1093      C1094   1.400       .  A
C1093      C1098   1.412       .  A
C1094      C1095   1.401       .  A
C1094      H1099   1.084       .  S
C1095      C1096   1.416       .  A
C1095      C1102   1.445       .  S
C1096      C1097   1.402       .  A
C1097      C1098   1.398       .  A
C1097      H1100   1.085       .  S
C1098      C1101   1.445       .  S
C1101      N1103   1.157       .  T
C1102      N1104   1.157       .  T
C1105      C1106   1.407       .  A
C1105      C1110   1.413       .  A
C1106      C1107   1.400       .  A
C1106      H1111   1.085       .  S
C1107      C1108   1.409       .  A
C1107      C1114   1.444       .  S
C1108      C1109   1.404       .  A
C1109      C1110   1.403       .  A
C1109      H1112   1.085       .  S
C1110      C1113   1.444       .  S
C1113      N1115   1.157       .  T
C1114      N1116   1.157       .  T
C1117      C1118   1.400       .  A
C1117      C1122   1.409       .  A
C1118      C1119   1.395   1_565  A
C1118      H1123   1.084       .  S
C1119      C1120   1.413       .  A
C1119      C1126   1.445       .  S
C1120      C1121   1.407       .  A
C1121      C1122   1.404   1_545  A
C1121      H1124   1.085       .  S
C1122      C1125   1.443       .  S
C1125      N1127   1.157       .  T
C1126      N1128   1.157       .  T
C1129      C1130   1.407       .  A
C1129      C1134   1.415       .  A
C1130      C1131   1.398       .  A
C1130      H1135   1.085       .  S
C1131      C1132   1.405       .  A
C1131      C1138   1.444       .  S
C1132      C1133   1.399       .  A
C1133      C1134   1.395       .  A
C1133      H1136   1.085       .  S
C1137      N1139   1.157       .  T
C1138      N1140   1.157       .  T
C1141      C1146   1.409       .  A
C1142      C1143   1.399   1_565  A
C1142      H1147   1.085       .  S
C1143      C1144   1.409       .  A
C1143      C1150   1.444       .  S
C1145      C1146   1.397   1_545  A
C1145      H1148   1.085       .  S
C1146      C1149   1.445       .  S
C1149      N1151   1.157       .  T
C1150      N1152   1.157       .  T
C1153      C1154   1.407       .  A
C1153      C1158   1.409       .  A
C1154      C1155   1.409       .  A
C1154      H1159   1.085       .  S
C1155      C1156   1.410       .  A
C1155      C1162   1.442       .  S
C1156      C1157   1.403       .  A
C1157      C1158   1.394       .  A
C1157      H1160   1.086       .  S
C1158      C1161   1.446       .  S
C1161      N1163   1.157       .  T
C1162      N1164   1.157       .  T
C1165      C1166   1.399       .  A
C1165      C1170   1.413       .  A
C1166      C1167   1.397       .  A
C1166      H1171   1.085       .  S
C1167      C1168   1.414       .  A
C1167      C1174   1.445       .  S
C1168      C1169   1.404       .  A
C1169      C1170   1.409       .  A
C1169      H1172   1.084       .  S
C1170      C1173   1.443       .  S
C1173      N1175   1.157       .  T
C1174      N1176   1.157       .  T
C1177      C1178   1.400       .  A
C1177      C1182   1.409       .  A
C1178      C1179   1.395   1_455  A
C1178      H1183   1.085       .  S
C1179      C1180   1.416       .  A
C1179      C1186   1.445       .  S
C1180      C1181   1.408       .  A
C1181      C1182   1.404   1_655  A
C1181      H1184   1.085       .  S
C1182      C1185   1.444       .  S
C1185      N1187   1.157       .  T
C1186      N1188   1.157       .  T
C1189      C1190   1.407       .  A
C1189      C1194   1.417       .  A
C1190      C1191   1.390       .  A
C1190      H1195   1.085       .  S
C1191      C1192   1.407       .  A
C1191      C1198   1.446       .  S
C1192      C1193   1.403       .  A
C1193      C1194   1.405       .  A
C1193      H1196   1.085       .  S
C1194      C1197   1.443       .  S
C1197      N1199   1.157       .  T
C1198      N1200   1.157       .  T
C1201      C1202   1.402       .  A
C1201      C1206   1.413       .  A
C1202      C1203   1.395       .  A
C1202      H1207   1.084       .  S
C1203      C1204   1.414       .  A
C1203      C1210   1.446       .  S
C1205      H1208   1.085       .  S
C1209      N1211   1.157       .  T
C1210      N1212   1.157       .  T
C1213      C1214   1.405       .  A
C1213      C1218   1.414       .  A
C1214      C1215   1.405   1_655  A
C1214      H1219   1.084       .  S
C1215      C1216   1.414       .  A
C1215      C1222   1.444       .  S
C1216      C1217   1.404       .  A
C1217      C1218   1.396   1_455  A
C1217      H1220   1.085       .  S
C1218      C1221   1.446       .  S
C1221      N1223   1.157       .  T
C1222      N1224   1.157       .  T
C1225      C1226   1.402       .  A
C1225      C1230   1.408       .  A
C1226      C1227   1.397       .  A
C1226      H1231   1.083       .  S
C1227      C1228   1.411       .  A
C1227      C1234   1.444       .  S
C1228      C1229   1.407       .  A
C1229      C1230   1.400       .  A
C1229      H1232   1.085       .  S
C1230      C1233   1.444       .  S
C1233      N1235   1.157       .  T
C1234      N1236   1.157       .  T
C1237      C1238   1.399       .  A
C1237      C1242   1.413       .  A
C1238      C1239   1.403       .  A
C1238      H1243   1.084       .  S
C1239      C1240   1.414       .  A
C1239      C1246   1.443       .  S
C1240      C1241   1.401       .  A
C1241      C1242   1.404       .  A
C1241      H1244   1.085       .  S
C1242      C1245   1.445       .  S
C1245      N1247   1.157       .  T
C1246      N1248   1.157       .  T
C1249      C1250   1.400       .  A
C1249      C1254   1.414       .  A
C1250      C1251   1.393       .  A
C1250      H1255   1.086       .  S
C1251      C1252   1.414       .  A
C1251      C1258   1.446       .  S
C1252      C1253   1.403       .  A
C1253      C1254   1.409       .  A
C1253      H1256   1.084       .  S
C1254      C1257   1.442       .  S
C1257      N1259   1.157       .  T
C1258      N1260   1.157       .  T
C1261      C1262   1.404       .  A
C1261      C1266   1.415       .  A
C1262      C1263   1.396       .  A
C1262      H1267   1.085       .  S
C1263      C1264   1.413       .  A
C1263      C1270   1.445       .  S
C1264      C1265   1.404       .  A
C1265      C1266   1.399       .  A
C1265      H1268   1.085       .  S
C1266      C1269   1.445       .  S
C1269      N1271   1.158       .  T
C1270      N1272   1.157       .  T
C1273      C1274   1.403       .  A
C1273      C1278   1.413       .  A
C1274      C1275   1.393   1_565  A
C1274      H1279   1.085       .  S
C1275      C1276   1.411       .  A
C1275      C1282   1.446       .  S
C1276      C1277   1.403       .  A
C1277      C1278   1.403   1_545  A
C1277      H1280   1.085       .  S
C1278      C1281   1.443       .  S
C1281      N1283   1.157       .  T
C1282      N1284   1.157       .  T
C1285      C1286   1.408       .  A
C1285      C1290   1.415       .  A
C1286      C1287   1.404   1_655  A
C1286      H1291   1.084       .  S
C1287      C1288   1.409       .  A
C1287      C1294   1.444       .  S
C1288      C1289   1.400       .  A
C1289      C1290   1.393   1_455  A
C1289      H1292   1.086       .  S
C1290      C1293   1.446       .  S
C1293      N1295   1.157       .  T
C1294      N1296   1.157       .  T
C1297      C1298   1.399       .  A
C1297      C1302   1.414       .  A
C1298      C1299   1.399       .  A
C1298      H1303   1.085       .  S
C1299      C1300   1.416       .  A
C1299      C1306   1.445       .  S
C1300      C1301   1.400       .  A
C1301      C1302   1.398       .  A
C1301      H1304   1.085       .  S
C1302      C1305   1.445       .  S
C1305      N1307   1.157       .  T
C1306      N1308   1.157       .  T
C1309      C1310   1.402       .  A
C1309      C1314   1.409       .  A
C1310      C1311   1.397       .  A
C1310      H1315   1.086       .  S
C1311      C1312   1.417       .  A
C1311      C1318   1.445       .  S
C1312      C1313   1.407       .  A
C1313      C1314   1.400       .  A
C1313      H1316   1.085       .  S
C1314      C1317   1.444       .  S
C1317      N1319   1.157       .  T
C1318      N1320   1.157       .  T
C1321      C1322   1.405       .  A
C1321      C1326   1.410       .  A
C1322      C1323   1.399   1_565  A
C1322      H1327   1.085       .  S
C1323      C1324   1.410       .  A
C1323      C1330   1.444       .  S
C1324      C1325   1.405       .  A
C1325      C1326   1.401   1_545  A
C1325      H1328   1.084       .  S
C1326      C1329   1.444       .  S
C1329      N1331   1.157       .  T
C1330      N1332   1.157       .  T
C1333      C1334   1.406       .  A
C1333      C1338   1.409       .  A
C1334      C1335   1.402   1_455  A
C1334      H1339   1.084       .  S
C1335      C1336   1.410       .  A
C1335      C1342   1.444       .  S
C1336      C1337   1.403       .  A
C1337      C1338   1.398   1_655  A
C1337      H1340   1.084       .  S
C1338      C1341   1.442       .  S
C1341      N1343   1.156       .  T
C1342      N1344   1.157       .  T
C1346      C1347   1.409       .  A
C1347      C1348   1.414       .  A
C1347      C1354   1.443       .  S
C1348      C1349   1.399       .  A
C1349      C1350   1.393       .  A
C1349      H1352   1.086       .  S
C1353      N1355   1.157       .  T
C1354      N1356   1.157       .  T
C1357      C1358   1.409       .  A
C1357      C1362   1.409       .  A
C1358      C1359   1.410       .  A
C1358      H1363   1.085       .  S
C1359      C1360   1.409       .  A
C1359      C1366   1.443       .  S
C1360      C1361   1.402       .  A
C1361      C1362   1.393       .  A
C1361      H1364   1.086       .  S
C1362      C1365   1.445       .  S
C1365      N1367   1.157       .  T
C1366      N1368   1.157       .  T
C1369      C1370   1.405       .  A
C1369      C1374   1.415       .  A
C1370      C1371   1.401       .  A
C1370      H1375   1.085       .  S
C1371      C1372   1.414       .  A
C1371      C1378   1.444       .  S
C1372      C1373   1.405       .  A
C1373      C1374   1.399       .  A
C1373      H1376   1.085       .  S
C1374      C1377   1.445       .  S
C1377      N1379   1.157       .  T
C1378      N1380   1.157       .  T
C1381      C1382   1.399       .  A
C1381      C1386   1.409       .  A
C1382      C1383   1.396       .  A
C1382      H1387   1.086       .  S
C1383      C1384   1.420       .  A
C1383      C1390   1.445       .  S
C1384      C1385   1.409       .  A
C1385      C1386   1.403       .  A
C1385      H1388   1.084       .  S
C1386      C1389   1.444       .  S
C1389      N1391   1.157       .  T
C1390      N1392   1.157       .  T
