geometry optimzed in LAMMPS
_audit_creation_date              2020-11-30 
_audit_creation_method            'lammps2cif' 
_symmetry_space_group_name_H-M    'P1' 
_symmetry_Int_Tables_number       1 
_symmetry_cell_setting            triclinic 
loop_ 
_symmetry_equiv_pos_as_xyz 
  x,y,z 
_cell_length_a                    58.39603553 
_cell_length_b                    58.366192148757904 
_cell_length_c                    31.21658578803211 
_cell_angle_alpha                 89.95781200514541 
_cell_angle_beta                  90.13861776750232 
_cell_angle_gamma                 90.12674161985346 
loop_ 
_atom_site_label 
_atom_site_type_symbol 
_atom_site_fract_x 
_atom_site_fract_y 
_atom_site_fract_z 
_atom_site_charge 
Zr1        Zr  0.64789869  0.85173027  0.12835067     2.17500
O2          O  0.67686073  0.82958692  0.09042210    -0.51700
O3          O  0.63932589  0.86089787  0.05322574    -0.74900
O4          O  0.63656745  0.81153195  0.11846114    -0.81700
O5          O  0.69322170  0.89578505  0.16479227    -0.83500
O6          O  0.60142257  0.80628000  0.14802707    -0.79100
O7          O  0.68859539  0.86230138  0.12874367    -0.90700
O8          O  0.61301882  0.88925222  0.05039951    -0.76700
O9          O  0.60754533  0.85728710  0.12381038    -0.86200
O10         O  0.64202307  0.89215295  0.12582778    -0.85900
O11         O  0.63262170  0.83446477  0.19256747    -0.72600
O12         O  0.66351630  0.86671927  0.19384612    -0.84800
Zr13       Zr  0.60049101  0.89614473  0.25067905     2.26400
Zr14       Zr  0.59208735  0.84078857  0.18786023     2.06300
Zr15       Zr  0.65658543  0.90697105  0.19187645     2.10000
Zr16       Zr  0.60173710  0.89766351  0.12239372     1.78800
O17         O  0.68608082  0.91922373  0.24227897    -0.93600
O18         O  0.56714725  0.88710197  0.08329082    -0.41400
O19         O  0.61640542  0.91316728  0.18741627    -0.78000
O20         O  0.58481557  0.88117435  0.18470667    -0.96700
O21         O  0.60689712  0.85585713  0.25372411    -0.90000
O22         O  0.64089362  0.89097541  0.25569863    -0.92800
C23         C  0.62654564  0.87505464  0.03251842     1.00900
C24         C  0.70096414  0.87889701  0.14318794     1.13800
C25         C  0.61901557  0.79904917  0.12741588     1.04600
O26         O  0.56010265  0.83232013  0.14026377    -0.95000
O27         O  0.55646477  0.84916139  0.22452792    -0.90700
O28         O  0.56056131  0.88367030  0.25735671    -0.83900
C29         C  0.54858543  0.86614975  0.24605917     1.11300
O30         O  0.67533435  0.81980972  0.25566918    -0.97000
Zr31       Zr  0.64734442  0.85071830  0.25717609     1.88900
O32         O  0.61068610  0.88802618  0.32559617    -0.73600
O33         O  0.58497558  0.80894551  0.23651821    -0.52900
O34         O  0.63402122  0.81594548  0.29263022    -0.97600
O35         O  0.68406018  0.86223594  0.28788075    -0.54800
O36         O  0.63922733  0.86191936  0.32908800    -0.74100
C37         C  0.62495244  0.87549449  0.34659149     0.98200
O38         O  0.57761950  0.92307369  0.29231260    -0.63000
O39         O  0.66725216  0.93649504  0.14040678    -0.57800
O40         O  0.60789442  0.93744040  0.24728132    -0.94400
O41         O  0.64460070  0.94212440  0.22507462    -0.92900
O42         O  0.61372605  0.93440314  0.09292681    -0.93200
O43         O  0.57133980  0.92590022  0.12940551    -0.92000
C44         C  0.62570862  0.94982640  0.23996381     1.17100
H45         H  0.64980248  0.89900765  0.10172213     0.33000
H46         H  0.56871726  0.88438091  0.18144475     0.43800
H47         H  0.64722265  0.89872555  0.28036020     0.37400
H48         H  0.63616491  0.81837805  0.19479761     0.33900
H49         H  0.56724097  0.89693885  0.05742484     0.25600
H50         H  0.57407904  0.79891978  0.22096802     0.31600
H51         H  0.62113733  0.82086590  0.31099126     0.37500
H52         H  0.60459907  0.93618434  0.06636023     0.31900
H53         H  0.65413178  0.94720369  0.13996740     0.30800
H54         H  0.69372590  0.93235582  0.22814395     0.32500
H55         H  0.68117825  0.87708723  0.30215833     0.31500
H56         H  0.57298109  0.93180626  0.15898874     0.35500
H57         H  0.56431878  0.92701226  0.27400902     0.28200
H58         H  0.66894024  0.82279813  0.06536737     0.32400
H59         H  0.67923874  0.81678626  0.28605110     0.35300
H60         H  0.67973559  0.94517881  0.15453697     0.27900
H61         H  0.57112110  0.91407306  0.31629824     0.40800
H62         H  0.55368457  0.84750204  0.13283445     0.30800
H63         H  0.57019851  0.87150020  0.07229261     0.38400
H64         H  0.69373788  0.86618612  0.26293619     0.30300
H65         H  0.59949419  0.80022145  0.23696866     0.30400
H66         H  0.68053257  0.81645576  0.10931740     0.30600
Zr67       Zr  0.64634358  0.85198627  0.62714483     2.17500
O68         O  0.67400383  0.82796939  0.58964717    -0.51700
O69         O  0.63805313  0.86236712  0.55294954    -0.74900
O70         O  0.63368329  0.81201724  0.61762929    -0.81700
O71         O  0.69230266  0.89588605  0.65851109    -0.83500
O72         O  0.59956161  0.80705550  0.65117725    -0.79100
O73         O  0.68737174  0.86179749  0.62461062    -0.90700
O74         O  0.60948113  0.88847859  0.55050174    -0.76700
O75         O  0.60578559  0.85724177  0.62587161    -0.86200
O76         O  0.64004203  0.89244395  0.62404684    -0.85900
O77         O  0.63211355  0.83511636  0.69247401    -0.72600
O78         O  0.66335693  0.86757440  0.69071446    -0.84800
Zr79       Zr  0.60151122  0.89707660  0.75231335     2.26400
Zr80       Zr  0.59147686  0.84154621  0.69172416     2.06300
Zr81       Zr  0.65621080  0.90777321  0.68844713     2.10000
Zr82       Zr  0.59958658  0.89751460  0.62347203     1.78800
O83         O  0.68662880  0.92049773  0.73646768    -0.93600
O84         O  0.56395238  0.88434853  0.59077495    -0.41400
O85         O  0.61583419  0.91361815  0.68707858    -0.78000
O86         O  0.58420656  0.88187549  0.68785462    -0.96700
O87         O  0.60815528  0.85681044  0.75571543    -0.90000
O88         O  0.64205284  0.89184525  0.75380223    -0.92800
C89         C  0.62418388  0.87546810  0.53244865     1.00900
C90         C  0.69994364  0.87858991  0.63772036     1.13800
C91         C  0.61633859  0.79965648  0.62855337     1.04600
O92         O  0.55788972  0.83140496  0.64936624    -0.95000
O93         O  0.55667175  0.85070150  0.73110663    -0.90700
O94         O  0.56122046  0.88579324  0.76128518    -0.83900
C95         C  0.54898817  0.86815041  0.75169921     1.11300
O96         O  0.67932590  0.82344845  0.74875760    -0.97000
Zr97       Zr  0.64867869  0.85155035  0.75513517     1.88900
O98         O  0.61268747  0.88790224  0.82639636    -0.73600
O99         O  0.58623750  0.81046852  0.74289653    -0.52900
O100        O  0.63937508  0.81415039  0.78528387    -0.97600
O101        O  0.68490974  0.86460680  0.78566624    -0.54800
O102        O  0.63916148  0.85962303  0.82797902    -0.74100
C103        C  0.62592840  0.87386452  0.84646057     0.98200
O104        O  0.57986685  0.92385388  0.79654553    -0.63000
O105        O  0.66614225  0.93704461  0.63595105    -0.57800
O106        O  0.60961670  0.93833969  0.75055318    -0.94400
O107        O  0.64493746  0.94334128  0.72173422    -0.92900
O108        O  0.60815676  0.93491128  0.59265407    -0.93200
O109        O  0.56913961  0.92568169  0.63087986    -0.92000
C110        C  0.62684387  0.95092366  0.74003905     1.17100
H111        H  0.64721267  0.89929850  0.59929797     0.33000
H112        H  0.56807290  0.88512918  0.68558719     0.43800
H113        H  0.64885662  0.89951323  0.77810831     0.37400
H114        H  0.63562698  0.81901488  0.69442488     0.33900
H115        H  0.56278556  0.89297709  0.56353708     0.25600
H116        H  0.57268035  0.80198108  0.73222554     0.31600
H117        H  0.62607249  0.81687917  0.80418338     0.37500
H118        H  0.60503455  0.93327488  0.56162043     0.31900
H119        H  0.65268880  0.94732433  0.63497668     0.30800
H120        H  0.69489600  0.93254093  0.72031950     0.32500
H121        H  0.68087967  0.87708718  0.80570720     0.31500
H122        H  0.57276970  0.93384441  0.65787047     0.35500
H123        H  0.56634075  0.92835014  0.77930898     0.28200
H124        H  0.66574804  0.82137381  0.56478585     0.32400
H125        H  0.68402828  0.81977940  0.77848775     0.35300
H126        H  0.67830277  0.94626956  0.64987368     0.27900
H127        H  0.57362334  0.91468585  0.82055501     0.40800
H128        H  0.54981525  0.84608745  0.64457414     0.30800
H129        H  0.56702570  0.86838038  0.58182826     0.38400
H130        H  0.69284483  0.87240609  0.76173041     0.30300
H131        H  0.59926719  0.80000013  0.73783595     0.30400
H132        H  0.67711684  0.81483254  0.60889212     0.30600
Zr133      Zr  0.89720768  0.89805811  0.00322298     2.17500
O134        O  0.91948229  0.92452289  0.95920542    -0.51700
O135        O  0.88764681  0.88842290  0.92857021    -0.74900
O136        O  0.93768241  0.88707346  0.99652499    -0.81700
O137        O  0.85295080  0.94366342  0.03464534    -0.83500
O138        O  0.94215739  0.85181482  0.02619306    -0.79100
O139        O  0.88778010  0.93903927  0.00376352    -0.90700
O140        O  0.86003957  0.86113795  0.92654703    -0.76700
O141        O  0.89058307  0.85779890  0.00026553    -0.86200
O142        O  0.85663336  0.89286019  0.00144095    -0.85900
O143        O  0.91420376  0.88326131  0.06824995    -0.72600
O144        O  0.88236431  0.91468641  0.06781933    -0.84800
Zr145      Zr  0.85238352  0.85227853  0.12805524     2.26400
Zr146      Zr  0.90714012  0.84277332  0.06479116     2.06300
Zr147      Zr  0.84203163  0.90804108  0.06723020     2.10000
Zr148      Zr  0.85003553  0.85273491  0.99948181     1.78800
O149        O  0.83353688  0.93825789  0.11857392    -0.93600
O150        O  0.85860075  0.81547893  0.96829067    -0.41400
O151        O  0.83509016  0.86778829  0.06457933    -0.78000
O152        O  0.86659618  0.83614298  0.06202360    -0.96700
O153        O  0.89269603  0.85866820  0.12994311    -0.90000
O154        O  0.85795077  0.89278112  0.13184262    -0.92800
C155        C  0.87403528  0.87482929  0.90825845     1.00900
C156        C  0.87064437  0.95144173  0.01530017     1.13800
C157        C  0.94986549  0.86942332  0.00604345     1.04600
O158        O  0.91737705  0.81141302  0.01712687    -0.95000
O159        O  0.89761075  0.80737874  0.10189957    -0.90700
O160        O  0.86296878  0.81186161  0.13379689    -0.83900
C161        C  0.88024828  0.79962875  0.12265001     1.11300
O162        O  0.92737198  0.92910834  0.12851745    -0.97000
Zr163      Zr  0.89824678  0.89915511  0.13183724     1.88900
O164        O  0.86226487  0.86173521  0.20245880    -0.73600
O165        O  0.93752279  0.83450720  0.11601185    -0.52900
O166        O  0.93469145  0.88882295  0.16462736    -0.97600
O167        O  0.88583948  0.93560869  0.16207634    -0.54800
O168        O  0.88990445  0.88895630  0.20422916    -0.74100
C169        C  0.87617008  0.87509597  0.22258399     0.98200
O170        O  0.82926262  0.82640613  0.17188703    -0.63000
O171        O  0.81022932  0.91953132  0.02130825    -0.57800
O172        O  0.81135126  0.86149228  0.12844215    -0.94400
O173        O  0.80645696  0.89694956  0.10009777    -0.92900
O174        O  0.81413906  0.86760425  0.97084184    -0.93200
O175        O  0.81854601  0.82541052  0.00379123    -0.92000
C176        C  0.79887281  0.87884213  0.11846388     1.17100
H177        H  0.84995585  0.90048726  0.97697081     0.33000
H178        H  0.86300918  0.82010463  0.05878262     0.43800
H179        H  0.85053966  0.89925333  0.15669612     0.37400
H180        H  0.93029565  0.88667105  0.07114144     0.33900
H181        H  0.85124945  0.81570105  0.93967880     0.25600
H182        H  0.94527304  0.82080137  0.10434004     0.31600
H183        H  0.93235878  0.87310999  0.17576830     0.37500
H184        H  0.81645584  0.86881433  0.93952778     0.31900
H185        H  0.80473572  0.93410753  0.03378080     0.30800
H186        H  0.81743877  0.94255433  0.11272739     0.32500
H187        H  0.87383405  0.93169280  0.18319851     0.31500
H188        H  0.81146481  0.82834885  0.03205149     0.35500
H189        H  0.82103712  0.83621683  0.19263205     0.28200
H190        H  0.92684533  0.91506261  0.93682000     0.32400
H191        H  0.93051702  0.93346826  0.15863649     0.35300
H192        H  0.81723419  0.92405198  0.99371729     0.27900
H193        H  0.81722644  0.82019641  0.15270351     0.40800
H194        H  0.90400940  0.80095534  0.01756169     0.30800
H195        H  0.87522214  0.81602491  0.96220784     0.38400
H196        H  0.87757446  0.94340132  0.13851799     0.30300
H197        H  0.94874577  0.84708543  0.11232033     0.30400
H198        H  0.93222661  0.92990289  0.97764426     0.30600
Zr199      Zr  0.89735124  0.89902986  0.50339042     2.17500
O200        O  0.92121535  0.92708746  0.46628019    -0.51700
O201        O  0.88768029  0.89001377  0.42865975    -0.74900
O202        O  0.93729477  0.88638439  0.49487115    -0.81700
O203        O  0.85339871  0.94452487  0.53474509    -0.83500
O204        O  0.94151918  0.85113830  0.52465539    -0.79100
O205        O  0.88782253  0.94001882  0.50234144    -0.90700
O206        O  0.86310044  0.86001248  0.42645029    -0.76700
O207        O  0.89099028  0.85876943  0.49970177    -0.86200
O208        O  0.85683067  0.89341776  0.50022912    -0.85900
O209        O  0.91410489  0.88381793  0.56819685    -0.72600
O210        O  0.88204180  0.91521617  0.56797042    -0.84800
Zr211      Zr  0.85186103  0.85280818  0.62658624     2.26400
Zr212      Zr  0.90689534  0.84339257  0.56420517     2.06300
Zr213      Zr  0.84174039  0.90851342  0.56552920     2.10000
Zr214      Zr  0.85061052  0.85314403  0.49803514     1.78800
O215        O  0.83022059  0.93866924  0.61483091    -0.93600
O216        O  0.85965936  0.81596792  0.46684087    -0.41400
O217        O  0.83487618  0.86819020  0.56258901    -0.78000
O218        O  0.86648891  0.83644685  0.56113856    -0.96700
O219        O  0.89215171  0.85906907  0.62918450    -0.90000
O220        O  0.85755925  0.89330852  0.63039586    -0.92800
C221        C  0.87584742  0.87485229  0.40831889     1.00900
C222        C  0.87082355  0.95239833  0.51468440     1.13800
C223        C  0.94929662  0.86857675  0.50435156     1.04600
O224        O  0.91393730  0.81166317  0.51536165    -0.95000
O225        O  0.89878250  0.80900874  0.60451144    -0.90700
O226        O  0.86369345  0.81280930  0.63481459    -0.83900
C227        C  0.88157846  0.80105293  0.62521445     1.11300
O228        O  0.92725617  0.92901896  0.62519483    -0.97000
Zr229      Zr  0.89791748  0.89941698  0.63188413     1.88900
O230        O  0.86080070  0.86208371  0.70147478    -0.73600
O231        O  0.93902850  0.83459805  0.61125041    -0.52900
O232        O  0.93409420  0.88812241  0.66470380    -0.97600
O233        O  0.88597694  0.93555958  0.66394116    -0.54800
O234        O  0.88950474  0.88823585  0.70425768    -0.74100
C235        C  0.87523598  0.87464246  0.72211855     0.98200
O236        O  0.82824124  0.82488336  0.66454321    -0.63000
O237        O  0.81068099  0.91857232  0.51663131    -0.57800
O238        O  0.81094840  0.86259765  0.62863849    -0.94400
O239        O  0.80610699  0.89753238  0.59814485    -0.92900
O240        O  0.81740690  0.86864806  0.46067326    -0.93200
O241        O  0.81855672  0.82640995  0.50095734    -0.92000
C242        C  0.79848247  0.87977759  0.61755863     1.17100
H243        H  0.85028066  0.90105156  0.47563619     0.33000
H244        H  0.86314175  0.82030939  0.55861049     0.43800
H245        H  0.85007952  0.89983838  0.65510664     0.37400
H246        H  0.93025871  0.88705821  0.57061751     0.33900
H247        H  0.85236115  0.81606601  0.43817350     0.25600
H248        H  0.94864102  0.82382957  0.59469632     0.31600
H249        H  0.93077238  0.87352133  0.67964477     0.37500
H250        H  0.80688302  0.87352313  0.48373489     0.31900
H251        H  0.80138882  0.92991197  0.53247653     0.30800
H252        H  0.81988579  0.94862924  0.59791678     0.32500
H253        H  0.87621485  0.93124623  0.68855193     0.31500
H254        H  0.80843615  0.83252998  0.52361732     0.35500
H255        H  0.82058248  0.83346138  0.68779771     0.28200
H256        H  0.92799331  0.91889744  0.44161941     0.32400
H257        H  0.93102299  0.93369928  0.65487991     0.35300
H258        H  0.81789130  0.92751530  0.49331003     0.27900
H259        H  0.81583287  0.82045021  0.64448372     0.40800
H260        H  0.90143801  0.80057142  0.52089732     0.30800
H261        H  0.87627942  0.81668913  0.46080668     0.38400
H262        H  0.87524008  0.94231647  0.64287318     0.30300
H263        H  0.94810411  0.84892827  0.61251393     0.30400
H264        H  0.93422553  0.93030948  0.48579441     0.30600
Zr265      Zr  0.85284405  0.15079282  0.37607070     2.17500
O266        O  0.82508895  0.17403112  0.33683095    -0.51700
O267        O  0.86268368  0.14194296  0.30131758    -0.74900
O268        O  0.86459765  0.19102550  0.36931311    -0.81700
O269        O  0.80753322  0.10499164  0.40047704    -0.83500
O270        O  0.89876392  0.19589275  0.40314926    -0.79100
O271        O  0.81178830  0.14096348  0.37374868    -0.90700
O272        O  0.89172097  0.11636142  0.29955870    -0.76700
O273        O  0.89345294  0.14630685  0.37641261    -0.86200
O274        O  0.85980641  0.11059792  0.37052793    -0.85900
O275        O  0.86614677  0.16678880  0.44316874    -0.72600
O276        O  0.83574833  0.13355893  0.43802819    -0.84800
Zr277      Zr  0.89729604  0.10415127  0.49952921     2.26400
Zr278      Zr  0.90691566  0.16129819  0.44353910     2.06300
Zr279      Zr  0.84332600  0.09357245  0.43295468     2.10000
Zr280      Zr  0.90029149  0.10616445  0.37185855     1.78800
O281        O  0.81214488  0.08033233  0.47843640    -0.93600
O282        O  0.93577514  0.12071436  0.34107167    -0.41400
O283        O  0.88387643  0.08804342  0.43319096    -0.78000
O284        O  0.91459524  0.12120521  0.43708073    -0.96700
O285        O  0.89009850  0.14422943  0.50564431    -0.90000
O286        O  0.85670008  0.10843946  0.49998689    -0.92800
C287        C  0.87717526  0.12932530  0.28115141     1.00900
C288        C  0.79961507  0.12311931  0.38259885     1.13800
C289        C  0.88192597  0.20330517  0.38054031     1.04600
O290        O  0.94094775  0.17339893  0.40465011    -0.95000
O291        O  0.94195008  0.15143527  0.48247221    -0.90700
O292        O  0.93714604  0.11558457  0.50957973    -0.83900
C293        C  0.94948725  0.13328927  0.50126866     1.11300
O294        O  0.81725119  0.17450487  0.49494832    -0.97000
Zr295      Zr  0.84952001  0.14852737  0.50421936     1.88900
O296        O  0.88669401  0.11157314  0.57412427    -0.73600
O297        O  0.91038591  0.19193725  0.49612823    -0.52900
O298        O  0.85669553  0.18570162  0.53716369    -0.97600
O299        O  0.81436133  0.13368579  0.53595384    -0.54800
O300        O  0.86020699  0.13981355  0.57684601    -0.74100
C301        C  0.87371850  0.12547901  0.59478415     0.98200
O302        O  0.92452048  0.08069947  0.53964404    -0.63000
O303        O  0.83517443  0.06514903  0.37776647    -0.57800
O304        O  0.88833910  0.06305373  0.49818090    -0.94400
O305        O  0.85386043  0.05768102  0.46581175    -0.92900
O306        O  0.89188983  0.06998714  0.33629154    -0.93200
O307        O  0.93150846  0.07884414  0.37944712    -0.92000
C308        C  0.87148001  0.05037056  0.48614734     1.17100
H309        H  0.85304451  0.10417856  0.34492911     0.33000
H310        H  0.93076573  0.11825829  0.43462053     0.43800
H311        H  0.84996413  0.10014531  0.52360457     0.37400
H312        H  0.86229829  0.18278892  0.44588586     0.33900
H313        H  0.93820152  0.11139857  0.31498541     0.25600
H314        H  0.92276924  0.20188047  0.48495154     0.31600
H315        H  0.87044362  0.18343836  0.55528373     0.37500
H316        H  0.89151417  0.05847271  0.35959791     0.31900
H317        H  0.84823007  0.05437848  0.37890978     0.30800
H318        H  0.80505821  0.06749393  0.46243869     0.32500
H319        H  0.81923099  0.12169681  0.55646045     0.31500
H320        H  0.93269288  0.07607754  0.41067750     0.35500
H321        H  0.91535702  0.07189408  0.56065541     0.28200
H322        H  0.83372047  0.18146996  0.31334041     0.32400
H323        H  0.81170048  0.17790072  0.52420709     0.35300
H324        H  0.82203553  0.05625175  0.38898158     0.27900
H325        H  0.93035006  0.06915604  0.51916100     0.40800
H326        H  0.94717027  0.15911462  0.39224520     0.30800
H327        H  0.93189911  0.13614543  0.33006715     0.38400
H328        H  0.80676502  0.12517118  0.51244556     0.30300
H329        H  0.89629303  0.20114368  0.49252537     0.30400
H330        H  0.82083203  0.18665770  0.35642781     0.30600
Zr331      Zr  0.89743386  0.10274884  0.00110691     2.17500
O332        O  0.91839516  0.07415042  0.04266202    -0.51700
O333        O  0.88832119  0.11314232  0.07537342    -0.74900
O334        O  0.93799523  0.11353900  0.00909638    -0.81700
O335        O  0.85214097  0.05737864  0.97276416    -0.83500
O336        O  0.94267191  0.14820225  0.97720542    -0.79100
O337        O  0.88789699  0.06182464  0.00044171    -0.90700
O338        O  0.86041849  0.13997945  0.07689455    -0.76700
O339        O  0.89145254  0.14312784  0.00356196    -0.86200
O340        O  0.85702549  0.10869465  0.00395075    -0.85900
O341        O  0.91418459  0.11712441  0.93576831    -0.72600
O342        O  0.88191845  0.08636606  0.93671429    -0.84800
Zr343      Zr  0.85222603  0.14845776  0.87648107     2.26400
Zr344      Zr  0.90779953  0.15762311  0.93865787     2.06300
Zr345      Zr  0.84174655  0.09308261  0.93915312     2.10000
Zr346      Zr  0.85099299  0.14897029  0.00441095     1.78800
O347        O  0.83297610  0.06270792  0.88827779    -0.93600
O348        O  0.86152380  0.18559762  0.03637805    -0.41400
O349        O  0.83510283  0.13345691  0.94045737    -0.78000
O350        O  0.86742425  0.16482767  0.94149572    -0.96700
O351        O  0.89246718  0.14203706  0.87371850    -0.90000
O352        O  0.85739407  0.10797867  0.87404607    -0.92800
C353        C  0.87472585  0.12678074  0.09537317     1.00900
C354        C  0.87028756  0.04958483  0.99068503     1.13800
C355        C  0.95034798  0.13091065  0.99827696     1.04600
O356        O  0.91758871  0.18994187  0.98454953    -0.95000
O357        O  0.89920207  0.19246414  0.89958529    -0.90700
O358        O  0.86438882  0.18831097  0.86789926    -0.83900
C359        C  0.88208316  0.20026571  0.87828724     1.11300
O360        O  0.92706131  0.07228449  0.87906245    -0.97000
Zr361      Zr  0.89762395  0.10162499  0.87214525     1.88900
O362        O  0.86053897  0.13844049  0.80178706    -0.73600
O363        O  0.93993364  0.16472041  0.89085218    -0.52900
O364        O  0.93372533  0.11451752  0.84131069    -0.97600
O365        O  0.88645513  0.06534895  0.83931344    -0.54800
O366        O  0.88794158  0.11105533  0.79923501    -0.74100
C367        C  0.87400076  0.12494938  0.78117997     0.98200
O368        O  0.82881266  0.17710162  0.83993260    -0.63000
O369        O  0.81176858  0.08232192  0.98952117    -0.57800
O370        O  0.81140473  0.13831163  0.87381036    -0.94400
O371        O  0.80594767  0.10402674  0.90669964    -0.92900
O372        O  0.81397454  0.13641837  0.03170371    -0.93200
O373        O  0.82172177  0.17854844  0.00010244    -0.92000
C374        C  0.79869187  0.12141146  0.88561593     1.17100
H375        H  0.85030358  0.10131934  0.02862875     0.33000
H376        H  0.86424321  0.18097798  0.94398648     0.43800
H377        H  0.84964453  0.10144305  0.84955899     0.37400
H378        H  0.93022273  0.11350100  0.93320966     0.33900
H379        H  0.85369289  0.18584997  0.06447080     0.25600
H380        H  0.93302422  0.17021526  0.86373928     0.31600
H381        H  0.92961361  0.12752249  0.82244420     0.37500
H382        H  0.81496102  0.13837985  0.06314369     0.31900
H383        H  0.80260442  0.09639827  0.99352192     0.30800
H384        H  0.82235085  0.05238763  0.90373016     0.32500
H385        H  0.87079657  0.06783681  0.82806281     0.31500
H386        H  0.81563116  0.17732536  0.97055513     0.35500
H387        H  0.82022837  0.16877715  0.81738447     0.28200
H388        H  0.92481339  0.08248324  0.06757528     0.32400
H389        H  0.93230601  0.06917454  0.84949434     0.35300
H390        H  0.80160305  0.07188469  0.97321196     0.27900
H391        H  0.81710398  0.18191013  0.86098541     0.40800
H392        H  0.90370241  0.19963993  0.98482437     0.30800
H393        H  0.87795648  0.18401385  0.04361947     0.38400
H394        H  0.88433370  0.05467952  0.86367080     0.30300
H395        H  0.94766869  0.17836272  0.90302936     0.30400
H396        H  0.93184609  0.06997991  0.02506766     0.30600
Zr397      Zr  0.64709240  0.14625234  0.37426267     2.17500
O398        O  0.67347541  0.16613472  0.42243079    -0.51700
O399        O  0.63655135  0.13648730  0.44788878    -0.74900
O400        O  0.63693161  0.18678811  0.38286708    -0.81700
O401        O  0.69326361  0.10282964  0.33926510    -0.83500
O402        O  0.60222856  0.19201415  0.35144199    -0.79100
O403        O  0.68834238  0.13737002  0.37131384    -0.90700
O404        O  0.61017296  0.10804836  0.44939216    -0.76700
O405        O  0.60660063  0.14067758  0.37591200    -0.86200
O406        O  0.64059720  0.10587525  0.37745064    -0.85900
O407        O  0.63323057  0.16366427  0.30881222    -0.72600
O408        O  0.66342562  0.13073745  0.31025530    -0.84800
Zr409      Zr  0.60119522  0.10224273  0.24869075     2.26400
Zr410      Zr  0.59258268  0.15764398  0.31117295     2.06300
Zr411      Zr  0.65627885  0.09066529  0.31290958     2.10000
Zr412      Zr  0.60018734  0.10025284  0.37667596     1.78800
O413        O  0.68619226  0.07487360  0.26752551    -0.93600
O414        O  0.56472667  0.11042320  0.41291791    -0.41400
O415        O  0.61593171  0.08514103  0.31275472    -0.78000
O416        O  0.58463969  0.11724910  0.31379546    -0.96700
O417        O  0.60839937  0.14244414  0.24636343    -0.90000
O418        O  0.64190860  0.10658768  0.24725569    -0.92800
C419        C  0.62332710  0.12246115  0.46783257     1.00900
C420        C  0.70104467  0.12070852  0.35830684     1.13800
C421        C  0.61953966  0.19925851  0.37306781     1.04600
O422        O  0.56034550  0.16826640  0.35637550    -0.95000
O423        O  0.55702442  0.14932392  0.27400681    -0.90700
O424        O  0.56122059  0.11477797  0.24138970    -0.83900
C425        C  0.54914595  0.13218678  0.25273242     1.11300
O426        O  0.68066665  0.17370264  0.25357943    -0.97000
Zr427      Zr  0.64899075  0.14675095  0.24548923     1.88900
O428        O  0.61053298  0.11183822  0.17409152    -0.73600
O429        O  0.58590552  0.18895838  0.26114526    -0.52900
O430        O  0.63974401  0.18314356  0.21136608    -0.97600
O431        O  0.68516219  0.13344527  0.21562558    -0.54800
O432        O  0.63921347  0.13797086  0.17231727    -0.74100
C433        C  0.62461104  0.12492140  0.15384341     0.98200
O434        O  0.57863599  0.07457506  0.20786289    -0.63000
O435        O  0.66329685  0.06241204  0.36914282    -0.57800
O436        O  0.60913069  0.06086712  0.24905369    -0.94400
O437        O  0.64359246  0.05544451  0.28114691    -0.92900
O438        O  0.61037565  0.06203253  0.40168622    -0.93200
O439        O  0.56997054  0.07174485  0.36822412    -0.92000
C440        C  0.62580990  0.04803679  0.26143214     1.17100
H441        H  0.64772448  0.09921765  0.40245619     0.33000
H442        H  0.56850148  0.11409829  0.31660209     0.43800
H443        H  0.64849591  0.09887238  0.22282841     0.37400
H444        H  0.63706515  0.17970233  0.30658727     0.33900
H445        H  0.56400368  0.10013295  0.43812465     0.25600
H446        H  0.57352474  0.19806470  0.27443016     0.31600
H447        H  0.64765772  0.18274551  0.18335136     0.37500
H448        H  0.61422336  0.05332466  0.37545236     0.31900
H449        H  0.66938927  0.04882292  0.35407311     0.30800
H450        H  0.69291209  0.06224862  0.28459397     0.32500
H451        H  0.68124259  0.12634927  0.18776656     0.31500
H452        H  0.57371152  0.06372735  0.34118173     0.35500
H453        H  0.56551910  0.07049990  0.22644851     0.28200
H454        H  0.66384831  0.17298355  0.44512425     0.32400
H455        H  0.68481527  0.17851671  0.22417325     0.35300
H456        H  0.67649378  0.06841197  0.38568041     0.27900
H457        H  0.57184377  0.08331375  0.18381574     0.40800
H458        H  0.56624207  0.16722095  0.38607791     0.30800
H459        H  0.56764209  0.12580242  0.42515687     0.38400
H460        H  0.68971603  0.12042587  0.23409302     0.30300
H461        H  0.59969296  0.19878003  0.26351961     0.30400
H462        H  0.67940572  0.17937788  0.40596764     0.30600
Zr463      Zr  0.64763761  0.14871087  0.87115257     2.17500
O464        O  0.67635700  0.17158126  0.90890997    -0.51700
O465        O  0.63930676  0.13837582  0.94629291    -0.74900
O466        O  0.63609331  0.18874777  0.88052292    -0.81700
O467        O  0.69306709  0.10502753  0.83579841    -0.83500
O468        O  0.60067925  0.19334204  0.85152254    -0.79100
O469        O  0.68868549  0.13960078  0.86811298    -0.90700
O470        O  0.60912095  0.11400806  0.94921905    -0.76700
O471        O  0.60734778  0.14261913  0.87570530    -0.86200
O472        O  0.64195866  0.10826218  0.87378927    -0.85900
O473        O  0.63184968  0.16563788  0.80680720    -0.72600
O474        O  0.66295649  0.13387477  0.80560397    -0.84800
Zr475      Zr  0.59976375  0.10346298  0.74886207     2.26400
Zr476      Zr  0.59136423  0.15882618  0.81188964     2.06300
Zr477      Zr  0.65642897  0.09363348  0.80760668     2.10000
Zr478      Zr  0.60166382  0.10219045  0.87705162     1.78800
O479        O  0.68496566  0.08328486  0.75423317    -0.93600
O480        O  0.56472689  0.10983246  0.91020494    -0.41400
O481        O  0.61618775  0.08687550  0.81205724    -0.78000
O482        O  0.58426393  0.11837976  0.81478507    -0.96700
O483        O  0.60607823  0.14385027  0.74610779    -0.90000
O484        O  0.64024031  0.10913008  0.74346574    -0.92800
C485        C  0.62435062  0.12649487  0.96712049     1.00900
C486        C  0.70099730  0.12266911  0.85523989     1.13800
C487        C  0.61838008  0.20091192  0.87151235     1.04600
O488        O  0.56002336  0.16588831  0.86151649    -0.95000
O489        O  0.55595989  0.15091009  0.77370648    -0.90700
O490        O  0.55995034  0.11627749  0.74138667    -0.83900
C491        C  0.54802334  0.13386750  0.75222795     1.11300
O492        O  0.67703886  0.17798652  0.74234124    -0.97000
Zr493      Zr  0.64645489  0.14944555  0.74218218     1.88900
O494        O  0.60955089  0.11070510  0.67381864    -0.73600
O495        O  0.58322040  0.19129051  0.76526398    -0.52900
O496        O  0.63451526  0.18530298  0.70896245    -0.97600
O497        O  0.68242030  0.13740544  0.70962481    -0.54800
O498        O  0.63582634  0.13921209  0.67076733    -0.74100
C499        C  0.62270074  0.12449459  0.65310275     0.98200
O500        O  0.57219311  0.07997201  0.70947842    -0.63000
O501        O  0.67046423  0.06435714  0.85665518    -0.57800
O502        O  0.60827335  0.06202594  0.75068650    -0.94400
O503        O  0.64365397  0.05747726  0.77947054    -0.92900
O504        O  0.61729527  0.06724062  0.90808250    -0.93200
O505        O  0.57508836  0.07008959  0.87223410    -0.92000
C506        C  0.62549557  0.04954873  0.76176807     1.17100
H507        H  0.64984291  0.10152183  0.89790988     0.33000
H508        H  0.56814592  0.11510963  0.81780201     0.43800
H509        H  0.64653554  0.10150884  0.71868542     0.37400
H510        H  0.63526108  0.18175719  0.80433523     0.33900
H511        H  0.56496257  0.10113586  0.93745705     0.25600
H512        H  0.57234826  0.20085875  0.78165676     0.31600
H513        H  0.61903038  0.18215964  0.69736592     0.37500
H514        H  0.62214077  0.07143585  0.93745475     0.31900
H515        H  0.65651416  0.05689151  0.86800983     0.30800
H516        H  0.68778103  0.06674105  0.75880705     0.32500
H517        H  0.67825402  0.12530177  0.68880543     0.31500
H518        H  0.57007415  0.06997731  0.84190617     0.35500
H519        H  0.58119737  0.07125324  0.68817831     0.28200
H520        H  0.66871882  0.17721107  0.93514351     0.32400
H521        H  0.67928378  0.18235137  0.71195713     0.35300
H522        H  0.67755424  0.05261703  0.83807825     0.27900
H523        H  0.56651986  0.06836650  0.73006937     0.40800
H524        H  0.54982989  0.15239035  0.85870287     0.30800
H525        H  0.56556311  0.12609326  0.91909420     0.38400
H526        H  0.69071033  0.12922834  0.73269959     0.30300
H527        H  0.59759661  0.20031166  0.76480556     0.30400
H528        H  0.67894528  0.18541331  0.89114077     0.30600
Zr529      Zr  0.14600463  0.85063488  0.12610217     2.17500
O530        O  0.16946943  0.82312092  0.16545344    -0.51700
O531        O  0.13705139  0.86070801  0.20063327    -0.74900
O532        O  0.18675453  0.86211890  0.13247366    -0.81700
O533        O  0.09983779  0.80520361  0.10041901    -0.83500
O534        O  0.19118146  0.89646276  0.09939757    -0.79100
O535        O  0.13505964  0.81004950  0.13035106    -0.90700
O536        O  0.10949684  0.88791992  0.20230784    -0.76700
O537        O  0.13930511  0.89087817  0.12930032    -0.86200
O538        O  0.10535782  0.85580870  0.12856570    -0.85900
O539        O  0.16247291  0.86529723  0.06062130    -0.72600
O540        O  0.13051068  0.83385952  0.06174482    -0.84800
Zr541      Zr  0.10080592  0.89656876  0.00157945     2.26400
Zr542      Zr  0.15550255  0.90580295  0.06467770     2.06300
Zr543      Zr  0.09016289  0.84039746  0.06333398     2.10000
Zr544      Zr  0.09874065  0.89596133  0.12994198     1.78800
O545        O  0.08127834  0.80725778  0.01892763    -0.93600
O546        O  0.10634099  0.93287288  0.16389715    -0.41400
O547        O  0.08361136  0.88071327  0.06499056    -0.78000
O548        O  0.11507422  0.91275415  0.06756897    -0.96700
O549        O  0.14100532  0.89001380  0.99918382    -0.90000
O550        O  0.10594052  0.85593041  0.99876667    -0.92800
C551        C  0.12352760  0.87438463  0.22070667     1.00900
C552        C  0.11747222  0.79771163  0.12061751     1.13800
C553        C  0.19905902  0.87935785  0.12045640     1.04600
O554        O  0.16409199  0.93507645  0.11790731    -0.95000
O555        O  0.14676167  0.94135387  0.02853118    -0.90700
O556        O  0.11167225  0.93751625  0.99762357    -0.83900
C557        C  0.12929944  0.94950232  0.00883672     1.11300
O558        O  0.17120929  0.81634002  0.00380834    -0.97000
Zr559      Zr  0.14606052  0.84946522  0.99733375     1.88900
O560        O  0.11090832  0.88782853  0.92703404    -0.73600
O561        O  0.18676275  0.91813973  0.01845176    -0.52900
O562        O  0.18348399  0.85897745  0.96780399    -0.97600
O563        O  0.13261611  0.81526692  0.95997412    -0.54800
O564        O  0.13960812  0.86184831  0.92516772    -0.74100
C565        C  0.12548128  0.87536040  0.90684192     0.98200
O566        O  0.07356815  0.91859168  0.95886467    -0.63000
O567        O  0.05713746  0.83460273  0.10980609    -0.57800
O568        O  0.06013777  0.88669444  0.99902219    -0.94400
O569        O  0.05608870  0.85017034  0.02295625    -0.92900
O570        O  0.06288774  0.88189621  0.16005492    -0.93200
O571        O  0.06697926  0.92275664  0.12450140    -0.92000
C572        C  0.04817518  0.86852681  0.00583964     1.17100
H573        H  0.09877555  0.84823784  0.15315407     0.33000
H574        H  0.11152869  0.92875049  0.07100761     0.43800
H575        H  0.09838693  0.84949642  0.97395276     0.37400
H576        H  0.17849023  0.86173975  0.05749955     0.33900
H577        H  0.11992301  0.93033193  0.18232169     0.25600
H578        H  0.19550807  0.92934731  0.03584340     0.31600
H579        H  0.18273836  0.87561233  0.96175787     0.37500
H580        H  0.06674190  0.87646296  0.18922975     0.31900
H581        H  0.04637500  0.82512733  0.09278357     0.30800
H582        H  0.06683836  0.80107150  0.03086926     0.32500
H583        H  0.12214417  0.82077873  0.93723169     0.31500
H584        H  0.06425873  0.92439447  0.09332618     0.35500
H585        H  0.06894303  0.93167270  0.97706206     0.28200
H586        H  0.17699695  0.83187874  0.18874196     0.32400
H587        H  0.17838692  0.81449008  0.97531370     0.35300
H588        H  0.06251251  0.82425560  0.13284413     0.27900
H589        H  0.08264042  0.92550202  0.93540033     0.40800
H590        H  0.15215884  0.94689980  0.11387225     0.30800
H591        H  0.11195254  0.94304381  0.14081809     0.38400
H592        H  0.12250987  0.80744077  0.98078268     0.30300
H593        H  0.19698949  0.90469233  0.01620960     0.30400
H594        H  0.18199213  0.81874220  0.14576697     0.30600
Zr595      Zr  0.10043703  0.89626557  0.50217456     2.17500
O596        O  0.07158132  0.91946590  0.46580999    -0.51700
O597        O  0.11061268  0.88812072  0.42723743    -0.74900
O598        O  0.11214382  0.93671069  0.49520436    -0.81700
O599        O  0.05506902  0.85055393  0.52969448    -0.83500
O600        O  0.14806340  0.94070747  0.52245281    -0.79100
O601        O  0.05985865  0.88536693  0.49830885    -0.90700
O602        O  0.13725206  0.85997929  0.42438592    -0.76700
O603        O  0.14045096  0.88906673  0.49709493    -0.86200
O604        O  0.10507058  0.85561464  0.50026927    -0.85900
O605        O  0.11654777  0.91294397  0.56624369    -0.72600
O606        O  0.08458384  0.88177132  0.56801437    -0.84800
Zr607      Zr  0.14757693  0.85056966  0.62467466     2.26400
Zr608      Zr  0.15673601  0.90550429  0.56048615     2.06300
Zr609      Zr  0.09029390  0.84128724  0.56645205     2.10000
Zr610      Zr  0.14506008  0.84844766  0.49664033     1.78800
O611        O  0.05835308  0.83457271  0.61488809    -0.93600
O612        O  0.18234225  0.85610608  0.46481585    -0.41400
O613        O  0.13032532  0.83343313  0.56219828    -0.78000
O614        O  0.16270468  0.86488585  0.55783957    -0.96700
O615        O  0.14224165  0.89107017  0.62708301    -0.90000
O616        O  0.10733924  0.85705181  0.62962420    -0.92800
C617        C  0.12418118  0.87470523  0.40658347     1.00900
C618        C  0.04754323  0.86791264  0.50881536     1.13800
C619        C  0.13012167  0.94870726  0.50397970     1.04600
O620        O  0.18759782  0.91379218  0.51049810    -0.95000
O621        O  0.19273529  0.89612866  0.59447022    -0.90700
O622        O  0.18862063  0.86120268  0.62604314    -0.83900
C623        C  0.20077724  0.87856962  0.61410507     1.11300
O624        O  0.07245413  0.92676076  0.62664965    -0.97000
Zr625      Zr  0.10198002  0.89736689  0.63104533     1.88900
O626        O  0.13988379  0.86029342  0.70010868    -0.73600
O627        O  0.16541643  0.93694817  0.60921035    -0.52900
O628        O  0.11505028  0.93389744  0.66019298    -0.97600
O629        O  0.06706267  0.88576629  0.66799675    -0.54800
O630        O  0.11358433  0.88872844  0.70286114    -0.74100
C631        C  0.12712227  0.87446281  0.72076269     0.98200
O632        O  0.17063070  0.82332515  0.66543367    -0.63000
O633        O  0.08147283  0.80931315  0.51905405    -0.57800
O634        O  0.13617342  0.80999322  0.62779628    -0.94400
O635        O  0.09917211  0.80685445  0.60615279    -0.92900
O636        O  0.13140985  0.81350073  0.46226864    -0.93200
O637        O  0.17264452  0.81759914  0.50613839    -0.92000
C638        C  0.11759809  0.79839295  0.62193625     1.17100
H639        H  0.09706247  0.84900781  0.47613999     0.33000
H640        H  0.17857620  0.86117374  0.55319892     0.43800
H641        H  0.10115840  0.84969671  0.65480512     0.37400
H642        H  0.11342515  0.92906792  0.56930595     0.33900
H643        H  0.18236687  0.84734730  0.43766503     0.25600
H644        H  0.17869768  0.94485179  0.59614754     0.31600
H645        H  0.10860371  0.93459499  0.68946964     0.37500
H646        H  0.14159564  0.81142327  0.43725583     0.31900
H647        H  0.09464408  0.79876548  0.52191784     0.30800
H648        H  0.05230667  0.81933551  0.60664914     0.32500
H649        H  0.07107929  0.87181425  0.68439059     0.31500
H650        H  0.17523047  0.81682692  0.53747690     0.35500
H651        H  0.18303000  0.81842243  0.64591698     0.28200
H652        H  0.07932720  0.92597325  0.44036229     0.32400
H653        H  0.06811094  0.93014026  0.65662928     0.35300
H654        H  0.06860777  0.80121193  0.53311062     0.27900
H655        H  0.17837906  0.83244113  0.68796928     0.40800
H656        H  0.19541784  0.92740333  0.52260020     0.30800
H657        H  0.18167238  0.87235886  0.45581499     0.38400
H658        H  0.05675889  0.88025496  0.64496114     0.30300
H659        H  0.15255897  0.94783876  0.60583487     0.30400
H660        H  0.06869227  0.93272310  0.48482253     0.30600
Zr661      Zr  0.39778995  0.89681065  0.25133666     2.17500
O662        O  0.42578691  0.91946271  0.29124637    -0.51700
O663        O  0.38792220  0.88793718  0.32606319    -0.74900
O664        O  0.38733064  0.93781090  0.25644776    -0.81700
O665        O  0.44224086  0.85000992  0.22440439    -0.83500
O666        O  0.35202439  0.94221399  0.22682737    -0.79100
O667        O  0.43826652  0.88530550  0.25407602    -0.90700
O668        O  0.35813647  0.86308409  0.32887196    -0.76700
O669        O  0.35739810  0.89096093  0.25463148    -0.86200
O670        O  0.39182840  0.85628465  0.25405441    -0.85900
O671        O  0.38301235  0.91341992  0.18603591    -0.72600
O672        O  0.41422851  0.88107795  0.18718012    -0.84800
Zr673      Zr  0.35075546  0.85170298  0.12810113     2.26400
Zr674      Zr  0.34247325  0.90707960  0.18971749     2.06300
Zr675      Zr  0.40677122  0.84087989  0.18881730     2.10000
Zr676      Zr  0.35163317  0.85046665  0.25660640     1.78800
O677        O  0.43758895  0.83330267  0.13838764    -0.93600
O678        O  0.31387907  0.85667746  0.28759960    -0.41400
O679        O  0.36639765  0.83441093  0.19191777    -0.78000
O680        O  0.33516226  0.86670708  0.19392623    -0.96700
O681        O  0.35797518  0.89186535  0.12485380    -0.90000
O682        O  0.39130894  0.85675720  0.12449813    -0.92800
C683        C  0.37303288  0.87600249  0.34678312     1.00900
C684        C  0.45023941  0.86757559  0.24402805     1.13800
C685        C  0.36982726  0.95010535  0.24599724     1.04600
O686        O  0.31142009  0.91707198  0.23798623    -0.95000
O687        O  0.30634833  0.89826124  0.15495539    -0.90700
O688        O  0.31008281  0.86318008  0.12421684    -0.83900
C689        C  0.29810673  0.88072198  0.13546321     1.11300
O690        O  0.42872224  0.92549626  0.13148348    -0.97000
Zr691      Zr  0.39857414  0.89684197  0.12308474     1.88900
O692        O  0.35883300  0.86299100  0.05377609    -0.73600
O693        O  0.33473089  0.93780730  0.13874802    -0.52900
O694        O  0.38856951  0.93300976  0.08888472    -0.97600
O695        O  0.43398441  0.88371542  0.08979985    -0.54800
O696        O  0.38763748  0.88903779  0.05097165    -0.74100
C697        C  0.37257644  0.87633829  0.03324345     0.98200
O698        O  0.32689336  0.82456516  0.08851894    -0.63000
O699        O  0.41741464  0.80883569  0.23478894    -0.57800
O700        O  0.36144661  0.81111825  0.12104757    -0.94400
O701        O  0.39656159  0.80630641  0.15110988    -0.92900
O702        O  0.36694574  0.81680850  0.29266628    -0.93200
O703        O  0.32496092  0.81863886  0.24844160    -0.92000
C704        C  0.37913377  0.79887881  0.13032387     1.17100
H705        H  0.39941612  0.84963159  0.27856780     0.33000
H706        H  0.31912505  0.86341649  0.19784761     0.43800
H707        H  0.39745344  0.84909029  0.09965255     0.37400
H708        H  0.38670062  0.92941267  0.18251406     0.33900
H709        H  0.31393030  0.84776861  0.31461514     0.25600
H710        H  0.31968920  0.94403548  0.14746529     0.31600
H711        H  0.37266838  0.93086053  0.07852447     0.37500
H712        H  0.35906613  0.81641546  0.32070730     0.31900
H713        H  0.40435689  0.79802032  0.23321934     0.30800
H714        H  0.44284389  0.81761797  0.14534963     0.32500
H715        H  0.42987901  0.86970384  0.07365266     0.31500
H716        H  0.32144738  0.81823408  0.21739598     0.35500
H717        H  0.31436605  0.82015750  0.10823270     0.28200
H718        H  0.41717332  0.92674370  0.31486983     0.32400
H719        H  0.43541547  0.92757289  0.10262224     0.35300
H720        H  0.42996133  0.80104001  0.21930649     0.27900
H721        H  0.31940661  0.83355430  0.06551885     0.40800
H722        H  0.30347167  0.90238652  0.24365571     0.30800
H723        H  0.31402190  0.87287075  0.29698214     0.38400
H724        H  0.44355261  0.87821157  0.11390668     0.30300
H725        H  0.34582139  0.95011008  0.14574516     0.30400
H726        H  0.43022868  0.93222892  0.27204747     0.30600
Zr727      Zr  0.39785656  0.89784005  0.75273887     2.17500
O728        O  0.42480850  0.92055014  0.79505330    -0.51700
O729        O  0.38688050  0.88944936  0.82740138    -0.74900
O730        O  0.38729792  0.93912935  0.75526453    -0.81700
O731        O  0.44248764  0.85095176  0.72943553    -0.83500
O732        O  0.35264134  0.94314013  0.72308386    -0.79100
O733        O  0.43849976  0.88671940  0.75700632    -0.90700
O734        O  0.36059440  0.86089528  0.82929145    -0.76700
O735        O  0.35754391  0.89128038  0.75552645    -0.86200
O736        O  0.39214073  0.85722578  0.75570187    -0.85900
O737        O  0.38345743  0.91357470  0.68635544    -0.72600
O738        O  0.41469931  0.88183335  0.68888239    -0.84800
Zr739      Zr  0.35226112  0.85142045  0.62855449     2.26400
Zr740      Zr  0.34298797  0.90688767  0.68998811     2.06300
Zr741      Zr  0.40777915  0.84151485  0.69142806     2.10000
Zr742      Zr  0.35197894  0.85072251  0.75699468     1.78800
O743        O  0.44026382  0.83415592  0.64469984    -0.93600
O744        O  0.31532871  0.86064332  0.78908427    -0.41400
O745        O  0.36750684  0.83457209  0.69307134    -0.78000
O746        O  0.33598889  0.86645661  0.69367798    -0.96700
O747        O  0.35880295  0.89168755  0.62520539    -0.90000
O748        O  0.39275204  0.85679430  0.62617702    -0.92800
C749        C  0.37356226  0.87551228  0.84761802     1.00900
C750        C  0.45043445  0.86870261  0.74854958     1.13800
C751        C  0.37012244  0.95141831  0.74271430     1.04600
O752        O  0.31315192  0.91596377  0.74157668    -0.95000
O753        O  0.30744661  0.89721062  0.65438788    -0.90700
O754        O  0.31171116  0.86264298  0.62205296    -0.83900
C755        C  0.29951851  0.87996129  0.63361428     1.11300
O756        O  0.42960342  0.92537507  0.63183317    -0.97000
Zr757      Zr  0.39928132  0.89692983  0.62365587     1.88900
O758        O  0.36002224  0.86211689  0.55377997    -0.73600
O759        O  0.33241693  0.93732310  0.64039860    -0.52900
O760        O  0.38789812  0.93329513  0.59180060    -0.97600
O761        O  0.43455066  0.88543535  0.58793858    -0.54800
O762        O  0.38883697  0.88814119  0.55105360    -0.74100
C763        C  0.37392979  0.87522609  0.53313634     0.98200
O764        O  0.32881695  0.82242876  0.59293556    -0.63000
O765        O  0.41476522  0.80988351  0.74081367    -0.57800
O766        O  0.36406032  0.81125677  0.62202704    -0.94400
O767        O  0.39921742  0.80681580  0.65222371    -0.92900
O768        O  0.36339340  0.81553661  0.79311000    -0.93200
O769        O  0.32234422  0.82160416  0.74875853    -0.92000
C770        C  0.38179765  0.79917862  0.63156065     1.17100
H771        H  0.39955166  0.85068209  0.78055214     0.33000
H772        H  0.31995458  0.86292466  0.69693348     0.43800
H773        H  0.39925750  0.84907527  0.60170743     0.37400
H774        H  0.38714104  0.92951261  0.68214690     0.33900
H775        H  0.31424204  0.85091659  0.81501473     0.25600
H776        H  0.32362451  0.94840599  0.65779795     0.31600
H777        H  0.37370948  0.92984121  0.57559916     0.37500
H778        H  0.36845979  0.80525358  0.76982301     0.31900
H779        H  0.40413236  0.79752256  0.73198011     0.30800
H780        H  0.44839666  0.82115512  0.65823501     0.32500
H781        H  0.43071226  0.87125244  0.57207993     0.31500
H782        H  0.32534483  0.81464544  0.72041047     0.35500
H783        H  0.31642354  0.81861426  0.61335992     0.28200
H784        H  0.41547026  0.92855332  0.81682558     0.32400
H785        H  0.43336414  0.93043818  0.60239058     0.35300
H786        H  0.43012697  0.80410263  0.73304754     0.27900
H787        H  0.32112035  0.83035657  0.56884191     0.40800
H788        H  0.30261259  0.90266227  0.74072822     0.30800
H789        H  0.31751800  0.87634583  0.80034639     0.38400
H790        H  0.44477836  0.88030018  0.61137173     0.30300
H791        H  0.34698467  0.94529747  0.63395749     0.30400
H792        H  0.43034531  0.93279069  0.77566065     0.30600
Zr793      Zr  0.35111550  0.14879116  0.37421850     2.17500
O794        O  0.32780118  0.17648606  0.41313866    -0.51700
O795        O  0.35869425  0.13828953  0.44897601    -0.74900
O796        O  0.31046955  0.13760026  0.37857948    -0.81700
O797        O  0.39793182  0.19351414  0.35187240    -0.83500
O798        O  0.30648778  0.10282060  0.34694856    -0.79100
O799        O  0.36241523  0.18909777  0.38028834    -0.90700
O800        O  0.38596414  0.11088888  0.45213821    -0.76700
O801        O  0.35732732  0.10847386  0.37710465    -0.86200
O802        O  0.39154631  0.14340895  0.37842847    -0.85900
O803        O  0.33519493  0.13436175  0.30816187    -0.72600
O804        O  0.36724735  0.16582141  0.31073631    -0.84800
Zr805      Zr  0.39771157  0.10278443  0.25179236     2.26400
Zr806      Zr  0.34193591  0.09388249  0.31120398     2.06300
Zr807      Zr  0.40752671  0.15876330  0.31403324     2.10000
Zr808      Zr  0.39781476  0.10331774  0.38039467     1.78800
O809        O  0.41615455  0.19033007  0.26555887    -0.93600
O810        O  0.38861651  0.06609410  0.41122926    -0.41400
O811        O  0.41414099  0.11842761  0.31634194    -0.78000
O812        O  0.38230130  0.08684258  0.31705766    -0.96700
O813        O  0.35750656  0.10957788  0.24669139    -0.90000
O814        O  0.39235392  0.14344103  0.24892022    -0.92800
C815        C  0.37167856  0.12439318  0.46978786     1.00900
C816        C  0.38027970  0.20117509  0.37155831     1.13800
C817        C  0.29839310  0.12015040  0.36696270     1.04600
O818        O  0.32798216  0.06216326  0.35464856    -0.95000
O819        O  0.35168499  0.05758747  0.27903494    -0.90700
O820        O  0.38634285  0.06174787  0.24714543    -0.83900
C821        C  0.36903459  0.04947100  0.25912676     1.11300
O822        O  0.32239180  0.17930776  0.24961183    -0.97000
Zr823      Zr  0.35222451  0.15016963  0.24577299     1.88900
O824        O  0.38894879  0.11249937  0.17687059    -0.73600
O825        O  0.31283304  0.08726244  0.25656212    -0.52900
O826        O  0.31647709  0.13820386  0.21198221    -0.97600
O827        O  0.36340382  0.18677933  0.21430129    -0.54800
O828        O  0.36304511  0.14125530  0.17396472    -0.74100
C829        C  0.37644221  0.12692666  0.15615641     0.98200
O830        O  0.42458380  0.07957319  0.21079446    -0.63000
O831        O  0.44061052  0.16672443  0.35952451    -0.57800
O832        O  0.43861651  0.11311740  0.25028912    -0.94400
O833        O  0.44278395  0.14866762  0.27885332    -0.92900
O834        O  0.43140126  0.11811173  0.41774503    -0.93200
O835        O  0.42968229  0.07656592  0.37666643    -0.92000
C836        C  0.45069079  0.13095301  0.25975145     1.17100
H837        H  0.39773160  0.15092639  0.40346085     0.33000
H838        H  0.38576011  0.07085354  0.32107332     0.43800
H839        H  0.40020046  0.15005194  0.22465280     0.37400
H840        H  0.31921405  0.13793004  0.30433198     0.33900
H841        H  0.39724564  0.06556745  0.43856007     0.25600
H842        H  0.30316733  0.07484230  0.26844578     0.31600
H843        H  0.32063484  0.12502291  0.19366388     0.37500
H844        H  0.43355782  0.10770822  0.44249670     0.31900
H845        H  0.44262715  0.18355913  0.35841035     0.30800
H846        H  0.43052292  0.19705639  0.27689032     0.32500
H847        H  0.37647589  0.18328597  0.19527984     0.31500
H848        H  0.42797677  0.06902865  0.34843279     0.35500
H849        H  0.42906843  0.06677803  0.22988679     0.28200
H850        H  0.32043236  0.16779723  0.43664365     0.32400
H851        H  0.31797217  0.18257537  0.21956866     0.35300
H852        H  0.43554599  0.16357393  0.38916597     0.27900
H853        H  0.41544409  0.07237681  0.18764972     0.40800
H854        H  0.34197306  0.05479552  0.36607825     0.30800
H855        H  0.37239131  0.06736914  0.42001259     0.38400
H856        H  0.37024171  0.19554255  0.23828581     0.30300
H857        H  0.30295514  0.10100661  0.25763453     0.30400
H858        H  0.31514160  0.18071509  0.39351961     0.30600
Zr859      Zr  0.39759426  0.10411908  0.75031146     2.17500
O860        O  0.42552908  0.08158257  0.71047202    -0.51700
O861        O  0.38607798  0.11136339  0.67604834    -0.74900
O862        O  0.38800400  0.06304372  0.74673843    -0.81700
O863        O  0.44192398  0.15066916  0.77567262    -0.83500
O864        O  0.35264305  0.05830712  0.77563326    -0.79100
O865        O  0.43766950  0.11613651  0.74324448    -0.90700
O866        O  0.35754401  0.13752269  0.67385319    -0.76700
O867        O  0.35695289  0.10842968  0.74959533    -0.86200
O868        O  0.39012271  0.14431723  0.74493363    -0.85900
O869        O  0.38503126  0.08773129  0.81730939    -0.72600
O870        O  0.41494160  0.12138915  0.81244524    -0.84800
Zr871      Zr  0.35238614  0.14837467  0.87544162     2.26400
Zr872      Zr  0.34424036  0.09253208  0.81630055     2.06300
Zr873      Zr  0.40594226  0.16122532  0.80810645     2.10000
Zr874      Zr  0.34969382  0.14865813  0.74640558     1.78800
O875        O  0.43968035  0.17937663  0.83927798    -0.93600
O876        O  0.31287738  0.13806342  0.71481953    -0.41400
O877        O  0.36535272  0.16580579  0.80968662    -0.78000
O878        O  0.33560060  0.13256712  0.81111843    -0.96700
O879        O  0.36086291  0.10858392  0.87989819    -0.90000
O880        O  0.39318352  0.14543564  0.87489344    -0.92800
C881        C  0.37151625  0.12380678  0.65569290     1.00900
C882        C  0.44973124  0.13366385  0.75428737     1.13800
C883        C  0.37048259  0.05068547  0.75655496     1.04600
O884        O  0.31070847  0.07900151  0.77723288    -0.95000
O885        O  0.30856705  0.10103899  0.85245929    -0.90700
O886        O  0.31195265  0.13642624  0.88213909    -0.83900
C887        C  0.30019482  0.11852658  0.87171270     1.11300
O888        O  0.43273626  0.07815675  0.87092882    -0.97000
Zr889      Zr  0.40170027  0.10574357  0.87854280     1.88900
O890        O  0.36225583  0.13865083  0.94986461    -0.73600
O891        O  0.34100219  0.06122974  0.86752434    -0.52900
O892        O  0.39473578  0.06953890  0.91515315    -0.97600
O893        O  0.43750174  0.12150580  0.90674737    -0.54800
O894        O  0.39274470  0.11481274  0.95151275    -0.74100
C895        C  0.37745420  0.12682242  0.97000713     0.98200
O896        O  0.32960301  0.17571031  0.91618349    -0.63000
O897        O  0.40565415  0.19058408  0.75247944    -0.57800
O898        O  0.36251127  0.18878745  0.88127044    -0.94400
O899        O  0.39775811  0.19410181  0.85230414    -0.92900
O900        O  0.36006730  0.18509541  0.71367644    -0.93200
O901        O  0.32031093  0.17798363  0.75304210    -0.92000
C902        C  0.38016470  0.20115426  0.87285754     1.17100
H903        H  0.39680407  0.15073934  0.71930590     0.33000
H904        H  0.31944136  0.13543755  0.80837755     0.43800
H905        H  0.39983711  0.15363888  0.89876643     0.37400
H906        H  0.38908424  0.07181628  0.82061981     0.33900
H907        H  0.31590504  0.12388060  0.69842785     0.25600
H908        H  0.33719551  0.06868897  0.89506640     0.31600
H909        H  0.37881021  0.07063324  0.92573525     0.37500
H910        H  0.35341915  0.18446902  0.68449272     0.31900
H911        H  0.40161181  0.20494770  0.76748485     0.30800
H912        H  0.44428990  0.19122993  0.81825070     0.32500
H913        H  0.43456084  0.12513748  0.93720774     0.31500
H914        H  0.31915551  0.18081163  0.78423776     0.35500
H915        H  0.31665457  0.17998806  0.89727597     0.28200
H916        H  0.41675365  0.07337497  0.68802818     0.32400
H917        H  0.44053747  0.07768524  0.89912197     0.35300
H918        H  0.42193011  0.19257554  0.74445750     0.27900
H919        H  0.32261437  0.16682337  0.93983008     0.40800
H920        H  0.31099030  0.08759405  0.74989216     0.30800
H921        H  0.30320737  0.13297245  0.73903254     0.38400
H922        H  0.43926397  0.13661303  0.89269201     0.30300
H923        H  0.32675888  0.05314411  0.85913191     0.30400
H924        H  0.43083041  0.06949693  0.73044039     0.30600
Zr925      Zr  0.14631280  0.14872742  0.37699656     2.17500
O926        O  0.16878822  0.17722818  0.33807835    -0.51700
O927        O  0.13905693  0.13891481  0.30158458    -0.74900
O928        O  0.18735811  0.13864389  0.37323567    -0.81700
O929        O  0.09866916  0.19261894  0.40225808    -0.83500
O930        O  0.19188870  0.10371357  0.40431942    -0.79100
O931        O  0.13453847  0.18895969  0.37501237    -0.90700
O932        O  0.11172652  0.11146407  0.29771809    -0.76700
O933        O  0.14040535  0.10844077  0.37226552    -0.86200
O934        O  0.10594046  0.14255404  0.37192728    -0.85900
O935        O  0.16212926  0.13367426  0.44263960    -0.72600
O936        O  0.12949427  0.16461281  0.44076398    -0.84800
Zr937      Zr  0.09998330  0.10040711  0.49743624     2.26400
Zr938      Zr  0.15595163  0.09315469  0.43728517     2.06300
Zr939      Zr  0.08937454  0.15674795  0.43649863     2.10000
Zr940      Zr  0.10000971  0.10241805  0.36879617     1.78800
O941        O  0.07685583  0.18926334  0.47923152    -0.93600
O942        O  0.11093958  0.06614343  0.33608762    -0.41400
O943        O  0.08318517  0.11632701  0.43336652    -0.78000
O944        O  0.11561679  0.08556335  0.43151351    -0.96700
O945        O  0.14005655  0.10793359  0.50223436    -0.90000
O946        O  0.10462868  0.14104286  0.50130436    -0.92800
C947        C  0.12600764  0.12515303  0.28042603     1.00900
C948        C  0.11654303  0.20072999  0.38388976     1.13800
C949        C  0.19968781  0.12133851  0.38455765     1.04600
O950        O  0.16829701  0.06348733  0.38766062    -0.95000
O951        O  0.14674013  0.05636528  0.46826984    -0.90700
O952        O  0.11189768  0.05965159  0.49983165    -0.83900
C953        C  0.12935410  0.04778073  0.48756522     1.11300
O954        O  0.17246715  0.17956482  0.50022261    -0.97000
Zr955      Zr  0.14452595  0.14858056  0.50510012     1.88900
O956        O  0.11007469  0.10788662  0.57300348    -0.73600
O957        O  0.18518329  0.08379732  0.49018632    -0.52900
O958        O  0.18096130  0.13933861  0.53912973    -0.97600
O959        O  0.12985400  0.18310260  0.53940462    -0.54800
O960        O  0.13590656  0.13682829  0.57632875    -0.74100
C961        C  0.12319854  0.12175227  0.59393652     0.98200
O962        O  0.07229216  0.07585518  0.53395143    -0.63000
O963        O  0.05887906  0.16078729  0.38367212    -0.57800
O964        O  0.05943484  0.11156224  0.50260416    -0.94400
O965        O  0.05539834  0.14778178  0.47692696    -0.92900
O966        O  0.06574233  0.11663916  0.33299091    -0.93200
O967        O  0.06872453  0.07479420  0.37073940    -0.92000
C968        C  0.04759929  0.12981462  0.49546477     1.17100
H969        H  0.09962257  0.15024037  0.34716454     0.33000
H970        H  0.11233393  0.06959153  0.42667282     0.43800
H971        H  0.09662215  0.14709659  0.52583326     0.37400
H972        H  0.17800872  0.13752989  0.44711866     0.33900
H973        H  0.10400860  0.06643403  0.30710914     0.25600
H974        H  0.19437962  0.07158214  0.47656832     0.31600
H975        H  0.17896621  0.12359886  0.55038336     0.37500
H976        H  0.06641720  0.11030863  0.30360276     0.31900
H977        H  0.04670715  0.15010193  0.39312548     0.30800
H978        H  0.06253624  0.19449738  0.46529900     0.32500
H979        H  0.11706815  0.17798721  0.55787409     0.31500
H980        H  0.06855208  0.06917087  0.40067362     0.35500
H981        H  0.06729639  0.06448065  0.51231125     0.28200
H982        H  0.17684507  0.16870995  0.31522433     0.32400
H983        H  0.17511728  0.18468261  0.53006804     0.35300
H984        H  0.05248669  0.17623047  0.38885170     0.27900
H985        H  0.08109566  0.06697218  0.55540703     0.40800
H986        H  0.16972534  0.07128379  0.35960262     0.30800
H987        H  0.12760378  0.06757804  0.33092993     0.38400
H988        H  0.12238090  0.19178002  0.51598902     0.30300
H989        H  0.19546721  0.09730066  0.49072661     0.30400
H990        H  0.18099464  0.18219462  0.35812261     0.30600
Zr991      Zr  0.10186899  0.10146528  0.00025431     2.17500
O992        O  0.07394930  0.07842017  0.03933146    -0.51700
O993        O  0.11262466  0.11015485  0.07440477    -0.74900
O994        O  0.11354473  0.06087817  0.00676724    -0.81700
O995        O  0.05666837  0.14634151  0.97142196    -0.83500
O996        O  0.14868723  0.05675013  0.97678958    -0.79100
O997        O  0.06125820  0.11239741  0.00585432    -0.90700
O998        O  0.13909459  0.13849879  0.07652583    -0.76700
O999        O  0.14200577  0.10848844  0.00423109    -0.86200
O1000       O  0.10692193  0.14212741  0.00139153    -0.85900
O1001       O  0.11722548  0.08486960  0.93574842    -0.72600
O1002       O  0.08543835  0.11594417  0.93488375    -0.84800
Zr1003     Zr  0.14813277  0.14674518  0.87528540     2.26400
Zr1004     Zr  0.15755349  0.09227574  0.94016424     2.06300
Zr1005     Zr  0.09170716  0.15637461  0.93530370     2.10000
Zr1006     Zr  0.14699884  0.14903083  0.00411026     1.78800
O1007       O  0.06079727  0.16197488  0.88386824    -0.93600
O1008       O  0.18372268  0.13839952  0.03553533    -0.41400
O1009       O  0.13189894  0.16378131  0.93854242    -0.78000
O1010       O  0.16400911  0.13293748  0.94192230    -0.96700
O1011       O  0.14227576  0.10639262  0.87397842    -0.90000
O1012       O  0.10775350  0.14055724  0.87153352    -0.92800
C1013       C  0.12603261  0.12391461  0.09469647     1.00900
C1014       C  0.04901293  0.12960860  0.99380381     1.13800
C1015       C  0.13106139  0.04867660  0.99618481     1.04600
O1016       O  0.18884697  0.08427822  0.98964581    -0.95000
O1017       O  0.19329586  0.10099111  0.90539574    -0.90700
O1018       O  0.18876332  0.13480743  0.87031561    -0.83900
C1019       C  0.20111901  0.11787071  0.88358511     1.11300
O1020       O  0.07395247  0.06929374  0.87515967    -0.97000
Zr1021     Zr  0.10194847  0.10025152  0.87139036     1.88900
O1022       O  0.13965062  0.13610056  0.80049448    -0.73600
O1023       O  0.16669091  0.06175342  0.88990443    -0.52900
O1024       O  0.11549550  0.06416514  0.84168160    -0.97600
O1025       O  0.06527462  0.11102413  0.83983207    -0.54800
O1026       O  0.11186485  0.10896083  0.79874922    -0.74100
C1027       C  0.12605780  0.12238952  0.78029078     0.98200
O1028       O  0.17205692  0.17504678  0.83916443    -0.63000
O1029       O  0.08085735  0.18935307  0.97869482    -0.57800
O1030       O  0.13649739  0.18711405  0.86839530    -0.94400
O1031       O  0.10144849  0.19148523  0.89871164    -0.92900
O1032       O  0.13330018  0.18366136  0.03910785    -0.93200
O1033       O  0.17369355  0.18107289  0.00005582    -0.92000
C1034       C  0.11884798  0.19924697  0.87826788     1.17100
H1035       H  0.09921280  0.14885781  0.02558997     0.33000
H1036       H  0.18000305  0.13668264  0.94524618     0.43800
H1037       H  0.10130690  0.14780122  0.84645891     0.37400
H1038       H  0.11391106  0.06877639  0.93264703     0.33900
H1039       H  0.18486276  0.14753538  0.06217623     0.25600
H1040       H  0.18011710  0.05392706  0.90259410     0.31600
H1041       H  0.13019868  0.06796292  0.82760639     0.37500
H1042       H  0.12690015  0.19309878  0.01560471     0.31900
H1043       H  0.06721872  0.19578665  0.96415801     0.30800
H1044       H  0.05051612  0.17327969  0.89748743     0.32500
H1045       H  0.06826403  0.12537584  0.82387102     0.31500
H1046       H  0.17875305  0.18130642  0.96980847     0.35500
H1047       H  0.18451211  0.17874601  0.85961909     0.28200
H1048       H  0.08262026  0.07072203  0.06251166     0.32400
H1049       H  0.06936684  0.06624207  0.84513265     0.35300
H1050       H  0.07489733  0.18296335  0.00586871     0.27900
H1051       H  0.17958658  0.16678551  0.81537316     0.40800
H1052       H  0.19669335  0.07078225  0.97735821     0.30800
H1053       H  0.18156642  0.12244881  0.04560369     0.38400
H1054       H  0.05571837  0.11576404  0.86442568     0.30300
H1055       H  0.15401475  0.05056605  0.89267582     0.30400
H1056       H  0.06938177  0.06599182  0.01947157     0.30600
Zr1057     Zr  0.85259223  0.35403108  0.37749710     2.17500
O1058       O  0.83027132  0.32697278  0.33471083    -0.51700
O1059       O  0.86084598  0.36513715  0.30352533    -0.74900
O1060       O  0.81190369  0.36433993  0.37237837    -0.81700
O1061       O  0.89814344  0.30875511  0.40330626    -0.83500
O1062       O  0.80762284  0.39955645  0.40197066    -0.79100
O1063       O  0.86330919  0.31357797  0.37214196    -0.90700
O1064       O  0.88930860  0.39153551  0.30121649    -0.76700
O1065       O  0.85888784  0.39437628  0.37489539    -0.86200
O1066       O  0.89304474  0.35980605  0.37478077    -0.85900
O1067       O  0.83592898  0.36808037  0.44306256    -0.72600
O1068       O  0.86821912  0.33667003  0.44108305    -0.84800
Zr1069     Zr  0.89807532  0.39910375  0.50246078     2.26400
Zr1070     Zr  0.84264030  0.40849176  0.44006542     2.06300
Zr1071     Zr  0.90842950  0.34389568  0.43903313     2.10000
Zr1072     Zr  0.89942670  0.39994100  0.37393831     1.78800
O1073       O  0.91877999  0.31202583  0.48549961    -0.93600
O1074       O  0.89053472  0.43725394  0.34317783    -0.41400
O1075       O  0.91535521  0.38426701  0.43814420    -0.78000
O1076       O  0.88311014  0.41559812  0.43708638    -0.96700
O1077       O  0.85776263  0.39232677  0.50466912    -0.90000
O1078       O  0.89271364  0.35847492  0.50425249    -0.92800
C1079       C  0.87475421  0.37830175  0.28318531     1.00900
C1080       C  0.88075372  0.30127975  0.38239002     1.13800
C1081       C  0.79973126  0.38187564  0.38250446     1.04600
O1082       O  0.83224994  0.44030511  0.39339950    -0.95000
O1083       O  0.85120636  0.44387954  0.47632898    -0.90700
O1084       O  0.88595060  0.43954864  0.50837529    -0.83900
C1085       C  0.86856516  0.45175233  0.49674972     1.11300
O1086       O  0.82383968  0.32202527  0.49375715    -0.97000
Zr1087     Zr  0.85254544  0.35176425  0.50560247     1.88900
O1088       O  0.88846557  0.38898324  0.57689295    -0.73600
O1089       O  0.81191274  0.41571299  0.49094449    -0.52900
O1090       O  0.81654849  0.35995707  0.54180030    -0.97600
O1091       O  0.86539604  0.31615021  0.53865860    -0.54800
O1092       O  0.86053414  0.36202183  0.57821526    -0.74100
C1093       C  0.87446868  0.37564038  0.59685820     0.98200
O1094       O  0.92176999  0.42587027  0.54335782    -0.63000
O1095       O  0.93847279  0.33564077  0.38716666    -0.57800
O1096       O  0.93905923  0.38844719  0.50601263    -0.94400
O1097       O  0.94358886  0.35357852  0.47509753    -0.92900
O1098       O  0.93364770  0.38702955  0.33675126    -0.93200
O1099       O  0.93078456  0.42716595  0.38253203    -0.92000
C1100       C  0.95131093  0.37093633  0.49564033     1.17100
H1101       H  0.89957334  0.35246567  0.34990493     0.33000
H1102       H  0.88652539  0.43167905  0.43400886     0.43800
H1103       H  0.90031879  0.35175045  0.52870186     0.37400
H1104       H  0.81991188  0.36448342  0.44625924     0.33900
H1105       H  0.89850939  0.43744014  0.31521663     0.25600
H1106       H  0.80488965  0.43023693  0.48118334     0.31600
H1107       H  0.80695812  0.36783339  0.52021146     0.37500
H1108       H  0.94491167  0.38391786  0.35975948     0.31900
H1109       H  0.95156322  0.34554135  0.39525230     0.30800
H1110       H  0.93222560  0.30495073  0.47154004     0.32500
H1111       H  0.87562980  0.32076409  0.56247916     0.31500
H1112       H  0.93418335  0.42706420  0.41362795     0.35500
H1113       H  0.92987982  0.41659866  0.56520271     0.28200
H1114       H  0.82285008  0.33616973  0.31192711     0.32400
H1115       H  0.82055030  0.31553242  0.52240803     0.35300
H1116       H  0.94360639  0.31991532  0.39413150     0.27900
H1117       H  0.93384568  0.43119033  0.52343708     0.40800
H1118       H  0.81947377  0.44805960  0.40828072     0.30800
H1119       H  0.87407182  0.43636891  0.33570088     0.38400
H1120       H  0.87571484  0.30916517  0.51726085     0.30300
H1121       H  0.80016360  0.40392179  0.48474181     0.30400
H1122       H  0.81757490  0.32177461  0.35334731     0.30600
Zr1123     Zr  0.89865546  0.39692971  0.00146573     2.17500
O1124       O  0.92688828  0.42097606  0.03790197    -0.51700
O1125       O  0.89015272  0.38822124  0.07666767    -0.74900
O1126       O  0.88671948  0.43720191  0.00882452    -0.81700
O1127       O  0.94367518  0.35162608  0.97283250    -0.83500
O1128       O  0.85126055  0.44105189  0.97990697    -0.79100
O1129       O  0.93943818  0.38673105  0.00309855    -0.90700
O1130       O  0.86204514  0.36149898  0.08042843    -0.76700
O1131       O  0.85840118  0.39059125  0.00635899    -0.86200
O1132       O  0.89320368  0.35636185  0.00517517    -0.85900
O1133       O  0.88285561  0.41321257  0.93668573    -0.72600
O1134       O  0.91451704  0.38129146  0.93682091    -0.84800
Zr1135     Zr  0.85106129  0.35092562  0.87964772     2.26400
Zr1136     Zr  0.84246359  0.40619518  0.94190094     2.06300
Zr1137     Zr  0.90777755  0.34102693  0.93961311     2.10000
Zr1138     Zr  0.85302988  0.35011326  0.00855667     1.78800
O1139       O  0.93805882  0.33209496  0.88878992    -0.93600
O1140       O  0.81685190  0.35935488  0.04320968    -0.41400
O1141       O  0.86744109  0.33432658  0.94344629    -0.78000
O1142       O  0.83576186  0.36572806  0.94581520    -0.96700
O1143       O  0.85745435  0.39125902  0.87626702    -0.90000
O1144       O  0.89156080  0.35641546  0.87542860    -0.92800
C1145       C  0.87618055  0.37542431  0.09774347     1.00900
C1146       C  0.95161146  0.36926844  0.99245166     1.13800
C1147       C  0.86887667  0.44911287  0.99918430     1.04600
O1148       O  0.81055316  0.41411487  0.98977759    -0.95000
O1149       O  0.80667734  0.39791647  0.90613436    -0.90700
O1150       O  0.81058927  0.36324195  0.87394535    -0.83900
C1151       C  0.79858794  0.38073601  0.88546405     1.11300
O1152       O  0.92781255  0.42564215  0.88029490    -0.97000
Zr1153     Zr  0.89797314  0.39659985  0.87311147     1.88900
O1154       O  0.85902583  0.36028205  0.80395983    -0.73600
O1155       O  0.83398062  0.43841272  0.89475631    -0.52900
O1156       O  0.88725317  0.43214389  0.83741931    -0.97600
O1157       O  0.93378429  0.38427904  0.84033910    -0.54800
O1158       O  0.88748533  0.38669993  0.80131113    -0.74100
C1159       C  0.87297622  0.37340946  0.78329283     0.98200
O1160       O  0.82564223  0.32181755  0.84958354    -0.63000
O1161       O  0.91820566  0.30950570  0.98700914    -0.57800
O1162       O  0.86265993  0.31065686  0.87219010    -0.94400
O1163       O  0.89733701  0.30590048  0.90410152    -0.92900
O1164       O  0.86746092  0.31482924  0.04020221    -0.93200
O1165       O  0.82421754  0.31994312  0.00606881    -0.92000
C1166       C  0.88010509  0.29839050  0.88281226     1.17100
H1167       H  0.90105365  0.34983152  0.02953500     0.33000
H1168       H  0.81970187  0.36232027  0.94922089     0.43800
H1169       H  0.89776193  0.34875450  0.85061350     0.37400
H1170       H  0.88617049  0.42931974  0.93356332     0.33900
H1171       H  0.81810488  0.35299705  0.07254290     0.25600
H1172       H  0.82577589  0.44962710  0.91286854     0.31600
H1173       H  0.87191655  0.42909826  0.82505327     0.37500
H1174       H  0.86162626  0.31489142  0.06995413     0.31900
H1175       H  0.90392682  0.30054466  0.99061095     0.30800
H1176       H  0.94740398  0.32022288  0.90319954     0.32500
H1177       H  0.92981883  0.37074523  0.82270797     0.31500
H1178       H  0.82296207  0.31596109  0.97532326     0.35500
H1179       H  0.81326840  0.31963810  0.87086559     0.28200
H1180       H  0.91888373  0.42770205  0.06282235     0.32400
H1181       H  0.93258603  0.42938496  0.85068361     0.35300
H1182       H  0.92821322  0.29954075  0.96953651     0.27900
H1183       H  0.81817489  0.32901506  0.82445980     0.40800
H1184       H  0.81765535  0.41727907  0.01799863     0.30800
H1185       H  0.81731863  0.37616342  0.04728662     0.38400
H1186       H  0.94297018  0.37803230  0.86433299     0.30300
H1187       H  0.84902820  0.44563689  0.88912247     0.30400
H1188       H  0.92993273  0.43403055  0.01841885     0.30600
Zr1189     Zr  0.89747349  0.60107969  0.00383614     2.17500
O1190       O  0.92592589  0.57732701  0.96788277    -0.51700
O1191       O  0.88783521  0.60807904  0.92845102    -0.74900
O1192       O  0.88683866  0.56011439  0.00175168    -0.81700
O1193       O  0.94121430  0.64925572  0.02449692    -0.83500
O1194       O  0.85257917  0.55567065  0.03508073    -0.79100
O1195       O  0.93792159  0.61274843  0.00016542    -0.90700
O1196       O  0.85854637  0.63338245  0.92491471    -0.76700
O1197       O  0.85683921  0.60539193  0.00225270    -0.86200
O1198       O  0.88982388  0.64114886  0.99571218    -0.85900
O1199       O  0.88426853  0.58610778  0.07159337    -0.72600
O1200       O  0.91423541  0.61989340  0.06469767    -0.84800
Zr1201     Zr  0.85131626  0.64817839  0.12530456     2.26400
Zr1202     Zr  0.84351529  0.59122067  0.06981481     2.06300
Zr1203     Zr  0.90531591  0.65953097  0.05766554     2.10000
Zr1204     Zr  0.84940736  0.64543873  0.99611445     1.78800
O1205       O  0.93794054  0.67467871  0.09728371    -0.93600
O1206       O  0.81334246  0.63177195  0.96589750    -0.41400
O1207       O  0.86467354  0.66397927  0.05827775    -0.78000
O1208       O  0.83494275  0.63110304  0.06178999    -0.96700
O1209       O  0.85996582  0.60848094  0.13222264    -0.90000
O1210       O  0.89217405  0.64509847  0.12523601    -0.92800
C1211       C  0.87323913  0.62022898  0.90747445     1.00900
C1212       C  0.94960210  0.63109370  0.00765709     1.13800
C1213       C  0.86976286  0.54782720  0.01442392     1.04600
O1214       O  0.81144138  0.57769196  0.02671134    -0.95000
O1215       O  0.80733983  0.60028883  0.10301208    -0.90700
O1216       O  0.81084502  0.63568525  0.13225678    -0.83900
C1217       C  0.79888961  0.61793049  0.12153123     1.11300
O1218       O  0.93290838  0.57952518  0.11975729    -0.97000
Zr1219     Zr  0.90080408  0.60543639  0.13134493     1.88900
O1220       O  0.86046870  0.63848046  0.20045139    -0.73600
O1221       O  0.83773901  0.56155584  0.12370350    -0.52900
O1222       O  0.89595971  0.56933179  0.16946474    -0.97600
O1223       O  0.93600365  0.62162313  0.16085093    -0.54800
O1224       O  0.89030798  0.61379817  0.20386611    -0.74100
C1225       C  0.87489014  0.62607165  0.22152989     0.98200
O1226       O  0.82672242  0.67629673  0.16016917    -0.63000
O1227       O  0.90860588  0.68909262  0.00261352    -0.57800
O1228       O  0.86203321  0.68884249  0.13001040    -0.94400
O1229       O  0.89560645  0.69426968  0.09469536    -0.92900
O1230       O  0.85881408  0.68129163  0.96014408    -0.93200
O1231       O  0.81928391  0.67422257  0.99831068    -0.92000
C1232       C  0.87894630  0.70141112  0.11763161     1.17100
H1233       H  0.89660516  0.64721252  0.96988988     0.33000
H1234       H  0.81880841  0.63398069  0.05827056     0.43800
H1235       H  0.89876596  0.65374573  0.14860637     0.37400
H1236       H  0.88835313  0.57028268  0.07607393     0.33900
H1237       H  0.81100588  0.64108915  0.93973071     0.25600
H1238       H  0.83005002  0.56932355  0.14789269     0.31600
H1239       H  0.87947892  0.56873956  0.17674757     0.37500
H1240       H  0.85595270  0.67839362  0.92934344     0.31900
H1241       H  0.91773250  0.70144458  0.01616271     0.30800
H1242       H  0.94304825  0.68817229  0.08056489     0.32500
H1243       H  0.93104626  0.63278415  0.18278924     0.31500
H1244       H  0.81741841  0.67772487  0.02913762     0.35500
H1245       H  0.81440759  0.67973977  0.13927611     0.28200
H1246       H  0.91749678  0.56848573  0.94582430     0.32400
H1247       H  0.93947605  0.57655372  0.14849593     0.35300
H1248       H  0.91893638  0.68260566  0.98066012     0.27900
H1249       H  0.81905936  0.66814146  0.18401126     0.40800
H1250       H  0.80401871  0.59179630  0.01591947     0.30800
H1251       H  0.81679761  0.61624424  0.95496458     0.38400
H1252       H  0.94235699  0.63113807  0.13743510     0.30300
H1253       H  0.82580040  0.55144618  0.11131948     0.30400
H1254       H  0.93082297  0.56584411  0.98939872     0.30600
Zr1255     Zr  0.85519346  0.64999216  0.62835573     2.17500
O1256       O  0.83310713  0.67810110  0.66870564    -0.51700
O1257       O  0.86423810  0.63921440  0.70253874    -0.74900
O1258       O  0.81454568  0.63934939  0.63650024    -0.81700
O1259       O  0.89886772  0.69592773  0.59662646    -0.83500
O1260       O  0.81061788  0.60342928  0.60989745    -0.79100
O1261       O  0.86525131  0.69048259  0.63175631    -0.90700
O1262       O  0.89327273  0.61360150  0.70400968    -0.76700
O1263       O  0.86305460  0.61010858  0.63414569    -0.86200
O1264       O  0.89598312  0.64594929  0.62755639    -0.85900
O1265       O  0.83757701  0.63400571  0.56512294    -0.72600
O1266       O  0.86846688  0.66616022  0.56173740    -0.84800
Zr1267     Zr  0.89849600  0.60325874  0.50353506     2.26400
Zr1268     Zr  0.84545017  0.59391716  0.57192477     2.06300
Zr1269     Zr  0.90894235  0.66070673  0.56023254     2.10000
Zr1270     Zr  0.90372880  0.60605231  0.63145015     1.78800
O1271       O  0.91320536  0.69057323  0.50620186    -0.93600
O1272       O  0.89816893  0.56839800  0.66369696    -0.41400
O1273       O  0.91705510  0.62056916  0.56457392    -0.78000
O1274       O  0.88606929  0.58803565  0.57141505    -0.96700
O1275       O  0.85811447  0.60872566  0.50431723    -0.90000
O1276       O  0.89211088  0.64364081  0.49804548    -0.92800
C1277       C  0.87829755  0.62597381  0.72248156     1.00900
C1278       C  0.88196613  0.70310996  0.61916203     1.13800
C1279       C  0.80248583  0.62142672  0.62781723     1.04600
O1280       O  0.83967323  0.56444926  0.62606046    -0.95000
O1281       O  0.85314543  0.55831393  0.53586719    -0.90700
O1282       O  0.88667052  0.56264487  0.49988644    -0.83900
C1283       C  0.86960596  0.55049198  0.51318729     1.11300
O1284       O  0.82136295  0.67725957  0.50741166    -0.97000
Zr1285     Zr  0.85177924  0.64897960  0.49949462     1.88900
O1286       O  0.88793791  0.61208009  0.42902932    -0.73600
O1287       O  0.81323948  0.58077894  0.52874620    -0.52900
O1288       O  0.81579542  0.63363337  0.47212037    -0.97600
O1289       O  0.86026102  0.68511362  0.46335273    -0.54800
O1290       O  0.86017904  0.63909651  0.42641288    -0.74100
C1291       C  0.87404351  0.62520000  0.40836527     0.98200
O1292       O  0.92072706  0.57426102  0.46580715    -0.63000
O1293       O  0.94125608  0.67527830  0.60160934    -0.57800
O1294       O  0.93901065  0.61409577  0.49554642    -0.94400
O1295       O  0.94402142  0.64937024  0.52476443    -0.92900
O1296       O  0.93810249  0.62258138  0.66344145    -0.93200
O1297       O  0.93595457  0.57979532  0.62586959    -0.92000
C1298       C  0.95142642  0.63172480  0.50462168     1.17100
H1299       H  0.90294796  0.65414492  0.65111901     0.33000
H1300       H  0.88984763  0.57205156  0.57476143     0.43800
H1301       H  0.89895169  0.64987591  0.47241946     0.37400
H1302       H  0.82143406  0.63706472  0.56250399     0.33900
H1303       H  0.90196921  0.57030652  0.69441744     0.25600
H1304       H  0.80327619  0.57223575  0.54883729     0.31600
H1305       H  0.81416896  0.64022387  0.44304867     0.37500
H1306       H  0.94910460  0.62391764  0.63948968     0.31900
H1307       H  0.95082175  0.66170208  0.60781674     0.30800
H1308       H  0.92919703  0.68929584  0.49605835     0.32500
H1309       H  0.87443087  0.68229226  0.44685080     0.31500
H1310       H  0.93970308  0.57955448  0.59495546     0.35500
H1311       H  0.92781257  0.58224533  0.44116205     0.28200
H1312       H  0.82625343  0.66961071  0.69299522     0.32400
H1313       H  0.81593067  0.68058088  0.47798555     0.35300
H1314       H  0.95036428  0.68437471  0.58095276     0.27900
H1315       H  0.93363798  0.57036135  0.48509222     0.40800
H1316       H  0.82602331  0.55584478  0.61616308     0.30800
H1317       H  0.88140075  0.56594829  0.66318856     0.38400
H1318       H  0.86505243  0.69566463  0.48654184     0.30300
H1319       H  0.80455624  0.59485368  0.52183495     0.30400
H1320       H  0.82001082  0.68234171  0.65011799     0.30600
Zr1321     Zr  0.60063032  0.60234181  0.24590934     2.17500
O1322       O  0.57192783  0.57953081  0.28353035    -0.51700
O1323       O  0.61171350  0.61092774  0.32040193    -0.74900
O1324       O  0.61106116  0.56114352  0.25133339    -0.81700
O1325       O  0.55648849  0.64943474  0.22046340    -0.83500
O1326       O  0.64570519  0.55648688  0.21951344    -0.79100
O1327       O  0.56074243  0.61484582  0.25293937    -0.90700
O1328       O  0.63862780  0.63887861  0.32150720    -0.76700
O1329       O  0.64092155  0.60856898  0.24878997    -0.86200
O1330       O  0.60649730  0.64294039  0.24746734    -0.85900
O1331       O  0.61479740  0.58578444  0.18038222    -0.72600
O1332       O  0.58393001  0.61799233  0.18151987    -0.84800
Zr1333     Zr  0.64702109  0.64735537  0.12085096     2.26400
Zr1334     Zr  0.65539810  0.59212562  0.18395541     2.06300
Zr1335     Zr  0.59126640  0.65830190  0.18227916     2.10000
Zr1336     Zr  0.64662273  0.64913564  0.24914048     1.78800
O1337       O  0.55927406  0.66570112  0.13406439    -0.93600
O1338       O  0.68370268  0.63922991  0.27989460    -0.41400
O1339       O  0.63163423  0.66483706  0.18433537    -0.78000
O1340       O  0.66290989  0.63260434  0.18687632    -0.96700
O1341       O  0.63974588  0.60716422  0.11874067    -0.90000
O1342       O  0.60643065  0.64234413  0.11785303    -0.92800
C1343       C  0.62544355  0.62464731  0.34023245     1.00900
C1344       C  0.54880517  0.63252973  0.24245772     1.13800
C1345       C  0.62830824  0.54871164  0.23996617     1.04600
O1346       O  0.68587087  0.58254546  0.23424635    -0.95000
O1347       O  0.69119483  0.60065563  0.14831424    -0.90700
O1348       O  0.68782521  0.63607914  0.11842710    -0.83900
C1349       C  0.69959425  0.61828042  0.12937865     1.11300
O1350       O  0.56814031  0.57432784  0.12015993    -0.97000
Zr1351     Zr  0.59919634  0.60228170  0.11708851     1.88900
O1352       O  0.63923245  0.63579617  0.04648517    -0.73600
O1353       O  0.66441902  0.56118320  0.13447782    -0.52900
O1354       O  0.60996247  0.56529351  0.08724013    -0.97600
O1355       O  0.56349982  0.61524041  0.08435181    -0.54800
O1356       O  0.61007039  0.61019302  0.04474244    -0.74100
C1357       C  0.62515756  0.62259789  0.02638139     0.98200
O1358       O  0.66894030  0.67368049  0.07605333    -0.63000
O1359       O  0.58333984  0.69095485  0.22854702    -0.57800
O1360       O  0.63690735  0.68836740  0.11715314    -0.94400
O1361       O  0.60101643  0.69290667  0.14368810    -0.92900
O1362       O  0.63297928  0.68467163  0.28111233    -0.93200
O1363       O  0.67444225  0.68022402  0.24568825    -0.92000
C1364       C  0.61904291  0.70061652  0.12518758     1.17100
H1365       H  0.59908940  0.64975632  0.27200645     0.33000
H1366       H  0.67892972  0.63591716  0.19114585     0.43800
H1367       H  0.60012511  0.64994158  0.09299810     0.37400
H1368       H  0.61100346  0.56979812  0.17713748     0.33900
H1369       H  0.68421004  0.64722556  0.30784846     0.25600
H1370       H  0.67408808  0.55049295  0.15120562     0.31600
H1371       H  0.62418964  0.56829796  0.07096724     0.37500
H1372       H  0.63477803  0.68267285  0.31243074     0.31900
H1373       H  0.59724491  0.70066014  0.22706953     0.30800
H1374       H  0.55283291  0.68045531  0.14392256     0.32500
H1375       H  0.56744303  0.62925825  0.06808542     0.31500
H1376       H  0.66846257  0.69067188  0.22331302     0.35500
H1377       H  0.68198145  0.67881529  0.09398679     0.28200
H1378       H  0.58023482  0.57150389  0.30678314     0.32400
H1379       H  0.56475699  0.57027425  0.08998662     0.35300
H1380       H  0.57145299  0.69982780  0.21315090     0.27900
H1381       H  0.67591226  0.66405563  0.05348641     0.40800
H1382       H  0.69609355  0.57212315  0.21821123     0.30800
H1383       H  0.68236245  0.62280205  0.28742820     0.38400
H1384       H  0.55408461  0.62072828  0.10858385     0.30300
H1385       H  0.64978208  0.55287188  0.13044139     0.30400
H1386       H  0.56727941  0.56733222  0.26323003     0.30600
Zr1387     Zr  0.60263926  0.60067002  0.74377447     2.17500
O1388       O  0.57454397  0.57612170  0.77921364    -0.51700
O1389       O  0.61225092  0.60828888  0.81941864    -0.74900
O1390       O  0.61471071  0.56004463  0.74781968    -0.81700
O1391       O  0.55706705  0.64555340  0.71606311    -0.83500
O1392       O  0.64896065  0.55635162  0.71443892    -0.79100
O1393       O  0.56205802  0.61095960  0.74829223    -0.90700
O1394       O  0.64108426  0.63421514  0.82307959    -0.76700
O1395       O  0.64265814  0.60810648  0.74903152    -0.86200
O1396       O  0.60677354  0.64142949  0.74761480    -0.85900
O1397       O  0.61814918  0.58565423  0.67804753    -0.72600
O1398       O  0.58669158  0.61645190  0.67884740    -0.84800
Zr1399     Zr  0.64978179  0.64910016  0.62325203     2.26400
Zr1400     Zr  0.65838291  0.59321246  0.68400920     2.06300
Zr1401     Zr  0.59231621  0.65694115  0.68181982     2.10000
Zr1402     Zr  0.64667359  0.64878373  0.75211700     1.78800
O1403       O  0.56070768  0.66277399  0.63195329    -0.93600
O1404       O  0.68455727  0.64454990  0.78391117    -0.41400
O1405       O  0.63240482  0.66482068  0.68690492    -0.78000
O1406       O  0.66447125  0.63378411  0.68982759    -0.96700
O1407       O  0.64386207  0.60879127  0.61846575    -0.90000
O1408       O  0.60933467  0.64281251  0.61755073    -0.92800
C1409       C  0.62698519  0.62034474  0.84048850     1.00900
C1410       C  0.54965949  0.62815968  0.73702199     1.13800
C1411       C  0.63187564  0.54797737  0.73487584     1.04600
O1412       O  0.68728320  0.58166845  0.73596348    -0.95000
O1413       O  0.69488787  0.60348097  0.65397523    -0.90700
O1414       O  0.69103647  0.63827874  0.62201229    -0.83900
C1415       C  0.70316425  0.62099860  0.63469344     1.11300
O1416       O  0.57731984  0.57010078  0.61142562    -0.97000
Zr1417     Zr  0.60361751  0.60254344  0.61441924     1.88900
O1418       O  0.64279932  0.63901308  0.54736487    -0.73600
O1419       O  0.66937561  0.56528051  0.62995655    -0.52900
O1420       O  0.62025441  0.56937215  0.57876734    -0.97600
O1421       O  0.56632085  0.61253343  0.58454953    -0.54800
O1422       O  0.61265380  0.61462879  0.54364076    -0.74100
C1423       C  0.62820153  0.62678962  0.52622987     0.98200
O1424       O  0.67369116  0.67750376  0.58719427    -0.63000
O1425       O  0.58121549  0.68930165  0.72651288    -0.57800
O1426       O  0.63786329  0.68952572  0.61838299    -0.94400
O1427       O  0.60201244  0.69238946  0.64590909    -0.92900
O1428       O  0.62907943  0.68058732  0.79020866    -0.93200
O1429       O  0.67222633  0.68172151  0.74865574    -0.92000
C1430       C  0.61959286  0.70098158  0.62713137     1.17100
H1431       H  0.59864683  0.64749198  0.77197988     0.33000
H1432       H  0.68030731  0.63756900  0.69496139     0.43800
H1433       H  0.60300307  0.65055609  0.59288305     0.37400
H1434       H  0.61471660  0.56967935  0.67358578     0.33900
H1435       H  0.68338187  0.65160407  0.81266801     0.25600
H1436       H  0.68098882  0.55556048  0.64422739     0.31600
H1437       H  0.61664661  0.57116938  0.54794480     0.37500
H1438       H  0.62194084  0.69002880  0.76749245     0.31900
H1439       H  0.56803593  0.69630381  0.71142993     0.30800
H1440       H  0.55236625  0.67620956  0.64327416     0.32500
H1441       H  0.56909681  0.62627060  0.56666068     0.31500
H1442       H  0.67520435  0.68385616  0.71769274     0.35500
H1443       H  0.68555072  0.68197784  0.60834725     0.28200
H1444       H  0.58275601  0.56886263  0.80345352     0.32400
H1445       H  0.57483713  0.56708861  0.58053626     0.35300
H1446       H  0.57452728  0.68247398  0.75270138     0.27900
H1447       H  0.68204314  0.66905512  0.56462520     0.40800
H1448       H  0.69676947  0.57026654  0.72068948     0.30800
H1449       H  0.68605509  0.62792952  0.78957596     0.38400
H1450       H  0.55736146  0.61824083  0.60919731     0.30300
H1451       H  0.65584388  0.55518215  0.62676465     0.30400
H1452       H  0.57128204  0.56347754  0.75893408     0.30600
Zr1453     Zr  0.60215595  0.39541588  0.24976425     2.17500
O1454       O  0.57532309  0.41745608  0.20613133    -0.51700
O1455       O  0.61260024  0.38617597  0.17578645    -0.74900
O1456       O  0.61221547  0.43666916  0.24481436    -0.81700
O1457       O  0.55743555  0.34922738  0.27652700    -0.83500
O1458       O  0.64727128  0.44140736  0.27511992    -0.79100
O1459       O  0.56155582  0.38448370  0.24672466    -0.90700
O1460       O  0.63904738  0.35792280  0.17323933    -0.76700
O1461       O  0.64245542  0.38914937  0.24649181    -0.86200
O1462       O  0.60781603  0.35474803  0.24820014    -0.85900
O1463       O  0.61678203  0.41231046  0.31481606    -0.72600
O1464       O  0.58538306  0.38016352  0.31414849    -0.84800
Zr1465     Zr  0.64823673  0.35082394  0.37463520     2.26400
Zr1466     Zr  0.65724086  0.40587474  0.31086207     2.06300
Zr1467     Zr  0.59240716  0.33983694  0.31353789     2.10000
Zr1468     Zr  0.64799627  0.34856488  0.24635715     1.78800
O1469       O  0.56096564  0.33165493  0.36235552    -0.93600
O1470       O  0.68425097  0.35748024  0.21153925    -0.41400
O1471       O  0.63263176  0.33323663  0.31117571    -0.78000
O1472       O  0.66437991  0.36539432  0.30856152    -0.96700
O1473       O  0.64162354  0.39117179  0.37642149    -0.90000
O1474       O  0.60768300  0.35609613  0.37774008    -0.92800
C1475       C  0.62581404  0.37244384  0.15521490     1.00900
C1476       C  0.54954769  0.36669086  0.25650434     1.13800
C1477       C  0.62948694  0.44924549  0.25581161     1.04600
O1478       O  0.68733163  0.41550352  0.25996413    -0.95000
O1479       O  0.69277439  0.39664761  0.34696037    -0.90700
O1480       O  0.68908977  0.36169662  0.37847076    -0.83900
C1481       C  0.70102218  0.37924592  0.36679017     1.11300
O1482       O  0.57199386  0.42612475  0.37293806    -0.97000
Zr1483     Zr  0.60103663  0.39627249  0.37808309     1.88900
O1484       O  0.63839579  0.36090489  0.44896064    -0.73600
O1485       O  0.66675117  0.43837648  0.35652739    -0.52900
O1486       O  0.61247967  0.43223542  0.41161007    -0.97600
O1487       O  0.56387220  0.38504125  0.40686829    -0.54800
O1488       O  0.60996361  0.38721125  0.45077686    -0.74100
C1489       C  0.62430779  0.37398475  0.46911278     0.98200
O1490       O  0.67001904  0.32463502  0.42010986    -0.63000
O1491       O  0.58215520  0.30789923  0.26705304    -0.57800
O1492       O  0.63906983  0.30972186  0.37694682    -0.94400
O1493       O  0.60289674  0.30518990  0.35155599    -0.92900
O1494       O  0.63689685  0.31167518  0.21633139    -0.93200
O1495       O  0.67679034  0.31902456  0.25784082    -0.92000
C1496       C  0.62110471  0.29748178  0.36958904     1.17100
H1497       H  0.60028286  0.34788313  0.22377043     0.33000
H1498       H  0.68037577  0.36194601  0.30468847     0.43800
H1499       H  0.60119521  0.34862160  0.40253370     0.37400
H1500       H  0.61310449  0.42828577  0.31836405     0.33900
H1501       H  0.68356737  0.34949170  0.18358885     0.25600
H1502       H  0.66762715  0.43197796  0.38585960     0.31600
H1503       H  0.62760194  0.42909668  0.42472373     0.37500
H1504       H  0.64360230  0.31154778  0.18723051     0.31900
H1505       H  0.59659093  0.29931497  0.26305733     0.30800
H1506       H  0.55385941  0.31747970  0.35100646     0.32500
H1507       H  0.56687497  0.37125946  0.42447792     0.31500
H1508       H  0.67284201  0.31214402  0.28589085     0.35500
H1509       H  0.68345162  0.31987343  0.40301454     0.28200
H1510       H  0.58469720  0.42547657  0.18435778     0.32400
H1511       H  0.56808434  0.43017458  0.40285055     0.35300
H1512       H  0.57253754  0.29775006  0.28502364     0.27900
H1513       H  0.67641142  0.33418659  0.44347589     0.40800
H1514       H  0.69733363  0.40184163  0.25923638     0.30800
H1515       H  0.68318084  0.37393830  0.20415559     0.38400
H1516       H  0.55512255  0.37928120  0.38187752     0.30300
H1517       H  0.68277987  0.44229031  0.34919446     0.30400
H1518       H  0.56945778  0.42972167  0.22504054     0.30600
Zr1519     Zr  0.64670510  0.35240919  0.87373087     2.17500
O1520       O  0.67015493  0.32604520  0.91574794    -0.51700
O1521       O  0.63755925  0.36209278  0.94821308    -0.74900
O1522       O  0.68730424  0.36424615  0.87826789    -0.81700
O1523       O  0.60138781  0.30662131  0.84849897    -0.83500
O1524       O  0.69174966  0.39843392  0.84457655    -0.79100
O1525       O  0.63717456  0.31146932  0.87580492    -0.90700
O1526       O  0.60955998  0.38881344  0.95110194    -0.76700
O1527       O  0.64061345  0.39272677  0.87562383    -0.86200
O1528       O  0.60621132  0.35807333  0.87814073    -0.85900
O1529       O  0.66256549  0.36622539  0.80722542    -0.72600
O1530       O  0.63002100  0.33503320  0.81118519    -0.84800
Zr1531     Zr  0.59961340  0.39663570  0.74940327     2.26400
Zr1532     Zr  0.65573255  0.40670399  0.80926841     2.06300
Zr1533     Zr  0.58981107  0.34202067  0.81471574     2.10000
Zr1534     Zr  0.60010374  0.39828138  0.87827075     1.78800
O1535       O  0.57633159  0.30839635  0.77592572    -0.93600
O1536       O  0.61226384  0.43480545  0.90874849    -0.41400
O1537       O  0.58305131  0.38241093  0.81494290    -0.78000
O1538       O  0.61538859  0.41329151  0.81367007    -0.96700
O1539       O  0.63982862  0.39001071  0.74572872    -0.90000
O1540       O  0.60495574  0.35607639  0.74856993    -0.92800
C1541       C  0.62383315  0.37524113  0.96898156     1.00900
C1542       C  0.61953577  0.29906262  0.86687365     1.13800
C1543       C  0.69962683  0.38138651  0.86592519     1.04600
O1544       O  0.66134098  0.43941057  0.85652772    -0.95000
O1545       O  0.64708999  0.44121676  0.77002003    -0.90700
O1546       O  0.61132502  0.43708163  0.74186877    -0.83900
C1547       C  0.62924811  0.44908669  0.75117075     1.11300
O1548       O  0.67413003  0.31984837  0.75412635    -0.97000
Zr1549     Zr  0.64508927  0.34948109  0.74582344     1.88900
O1550       O  0.60907452  0.38650145  0.67494423    -0.73600
O1551       O  0.68671886  0.41724359  0.76090534    -0.52900
O1552       O  0.68043346  0.36025489  0.70960534    -0.97600
O1553       O  0.63219240  0.31257387  0.71793693    -0.54800
O1554       O  0.63531964  0.35796221  0.67323997    -0.74100
C1555       C  0.62202792  0.37223343  0.65485000     0.98200
O1556       O  0.57475402  0.42482170  0.71497767    -0.63000
O1557       O  0.56001373  0.33788439  0.86875044    -0.57800
O1558       O  0.55922127  0.38465159  0.74339555    -0.94400
O1559       O  0.55561518  0.34945593  0.77334535    -0.92900
O1560       O  0.56393341  0.38714164  0.91100378    -0.93200
O1561       O  0.57168026  0.42866160  0.87299438    -0.92000
C1562       C  0.54750022  0.36659635  0.75268253     1.17100
H1563       H  0.59989463  0.35080233  0.90328907     0.33000
H1564       H  0.61215192  0.42941842  0.81625948     0.43800
H1565       H  0.59713901  0.34909246  0.72457475     0.37400
H1566       H  0.67856498  0.36268247  0.80367034     0.33900
H1567       H  0.60193201  0.43741455  0.93336534     0.25600
H1568       H  0.69587910  0.42869231  0.77694311     0.31600
H1569       H  0.67808673  0.37635648  0.70063137     0.37500
H1570       H  0.55280217  0.38669866  0.88703331     0.31900
H1571       H  0.54565063  0.34259087  0.85436000     0.30800
H1572       H  0.56428479  0.30169919  0.79440512     0.32500
H1573       H  0.61919049  0.30817351  0.73651386     0.31500
H1574       H  0.56846823  0.43002125  0.84193664     0.35500
H1575       H  0.56692562  0.41674651  0.69118288     0.28200
H1576       H  0.67786637  0.33550335  0.93783640     0.32400
H1577       H  0.67798056  0.31494499  0.72465427     0.35300
H1578       H  0.55834878  0.32114258  0.87284361     0.27900
H1579       H  0.56257002  0.42827462  0.73602889     0.40800
H1580       H  0.66939410  0.43322197  0.88194356     0.30800
H1581       H  0.62733228  0.43162655  0.92204383     0.38400
H1582       H  0.62508611  0.31588149  0.68979524     0.30300
H1583       H  0.69662970  0.40353014  0.75941478     0.30400
H1584       H  0.68255272  0.32097807  0.89637118     0.30600
Zr1585     Zr  0.14741622  0.64707529  0.12223391     2.17500
O1586       O  0.17604408  0.66831206  0.16328163    -0.51700
O1587       O  0.13877269  0.63684784  0.19676135    -0.74900
O1588       O  0.13565039  0.68719268  0.13199506    -0.81700
O1589       O  0.19358471  0.60429451  0.08521231    -0.83500
O1590       O  0.09976411  0.69157184  0.10476459    -0.79100
O1591       O  0.18865725  0.63870388  0.11802408    -0.90700
O1592       O  0.11217005  0.60861108  0.19876835    -0.76700
O1593       O  0.10716244  0.64042049  0.12674545    -0.86200
O1594       O  0.14234140  0.60641555  0.12280547    -0.85900
O1595       O  0.13137468  0.66486242  0.05910225    -0.72600
O1596       O  0.16291756  0.63296037  0.05639293    -0.84800
Zr1597     Zr  0.10071482  0.60329809  0.99748968     2.26400
Zr1598     Zr  0.09107617  0.65731440  0.06351146     2.06300
Zr1599     Zr  0.15703608  0.59256563  0.05603977     2.10000
Zr1600     Zr  0.10213839  0.59988834  0.12594777     1.78800
O1601       O  0.18695129  0.58319625  0.00481228    -0.93600
O1602       O  0.06636916  0.60893818  0.16251742    -0.41400
O1603       O  0.11686521  0.58548895  0.05995281    -0.78000
O1604       O  0.08486279  0.61670160  0.06425585    -0.96700
O1605       O  0.10634214  0.64375222  0.99713831    -0.90000
O1606       O  0.14102406  0.60956701  0.99307469    -0.92800
C1607       C  0.12559625  0.62289685  0.21708654     1.00900
C1608       C  0.20125124  0.62202538  0.10489005     1.13800
C1609       C  0.11771218  0.69929145  0.12384575     1.04600
O1610       O  0.05817229  0.66376024  0.10969498    -0.95000
O1611       O  0.05581306  0.64882903  0.02566493    -0.90700
O1612       O  0.06034524  0.61459826  0.99217569    -0.83900
C1613       C  0.04811159  0.63175972  0.00404024     1.11300
O1614       O  0.17531586  0.68004744  0.00422574    -0.97000
Zr1615     Zr  0.14667107  0.65003545  0.99424396     1.88900
O1616       O  0.11005647  0.61405325  0.92353905    -0.73600
O1617       O  0.08295773  0.68957164  0.01643589    -0.52900
O1618       O  0.13458786  0.68637779  0.96312687    -0.97600
O1619       O  0.18361558  0.63976795  0.96357899    -0.54800
O1620       O  0.13698954  0.64199556  0.92118635    -0.74100
C1621       C  0.12317738  0.62800499  0.90308444     0.98200
O1622       O  0.07801974  0.57728090  0.95315533    -0.63000
O1623       O  0.16841788  0.56202521  0.10481238    -0.57800
O1624       O  0.10944699  0.56211476  0.99560076    -0.94400
O1625       O  0.14583078  0.55748158  0.02003928    -0.92900
O1626       O  0.11567596  0.56325425  0.15336541    -0.93200
O1627       O  0.07251144  0.57064899  0.11961823    -0.92000
C1628       C  0.12730477  0.54980333  0.00308076     1.17100
H1629       H  0.15025317  0.59945365  0.14667652     0.33000
H1630       H  0.06884640  0.61297888  0.06720566     0.43800
H1631       H  0.14740558  0.60259105  0.96772817     0.37400
H1632       H  0.13453679  0.68103901  0.05702706     0.33900
H1633       H  0.07056195  0.61946475  0.18613030     0.25600
H1634       H  0.07067446  0.69817213  0.03112052     0.31600
H1635       H  0.11906487  0.68340212  0.95155274     0.37500
H1636       H  0.11567246  0.55294364  0.12818379     0.31900
H1637       H  0.15659400  0.54998527  0.10140173     0.30800
H1638       H  0.19591131  0.57087904  0.01875794     0.32500
H1639       H  0.18046545  0.62647814  0.94477838     0.31500
H1640       H  0.07044894  0.56856756  0.08836147     0.35500
H1641       H  0.06509125  0.57217909  0.97131755     0.28200
H1642       H  0.16788594  0.67421334  0.18873642     0.32400
H1643       H  0.18026782  0.68445934  0.97504079     0.35300
H1644       H  0.18234265  0.55539528  0.09176293     0.27900
H1645       H  0.07095427  0.58691570  0.93061243     0.40800
H1646       H  0.05186946  0.67866973  0.10023814     0.30800
H1647       H  0.05776675  0.61869515  0.14216935     0.38400
H1648       H  0.19247158  0.63331326  0.98782667     0.30300
H1649       H  0.09661243  0.69958476  0.01867163     0.30400
H1650       H  0.17962104  0.68208674  0.14597689     0.30600
Zr1651     Zr  0.14832376  0.64740604  0.62140585     2.17500
O1652       O  0.17670168  0.67044007  0.65964827    -0.51700
O1653       O  0.13896216  0.63899379  0.69637668    -0.74900
O1654       O  0.13658821  0.68769188  0.62916869    -0.81700
O1655       O  0.19404520  0.60280225  0.59127815    -0.83500
O1656       O  0.10108242  0.69153526  0.60030700    -0.79100
O1657       O  0.18936127  0.63811184  0.62064424    -0.90700
O1658       O  0.11125134  0.61184256  0.69948020    -0.76700
O1659       O  0.10808180  0.64073317  0.62562237    -0.86200
O1660       O  0.14306265  0.60676927  0.62520503    -0.85900
O1661       O  0.13284879  0.66379710  0.55653689    -0.72600
O1662       O  0.16442078  0.63170716  0.55717189    -0.84800
Zr1663     Zr  0.10196973  0.60101695  0.49935703     2.26400
Zr1664     Zr  0.09249673  0.65654810  0.56109108     2.06300
Zr1665     Zr  0.15811966  0.59138316  0.56013256     2.10000
Zr1666     Zr  0.10285845  0.60020047  0.62759221     1.78800
O1667       O  0.18848788  0.58078716  0.51066240    -0.93600
O1668       O  0.06549744  0.60838719  0.65840359    -0.41400
O1669       O  0.11795676  0.58449305  0.56326320    -0.78000
O1670       O  0.08584834  0.61599796  0.56466825    -0.96700
O1671       O  0.10801615  0.64142719  0.49599864    -0.90000
O1672       O  0.14239087  0.60682206  0.49552309    -0.92800
C1673       C  0.12502613  0.62601572  0.71716983     1.00900
C1674       C  0.20172460  0.62079001  0.60990498     1.13800
C1675       C  0.11864876  0.69958377  0.62016020     1.04600
O1676       O  0.06040222  0.66360981  0.60894333    -0.95000
O1677       O  0.05744872  0.64798578  0.52261560    -0.90700
O1678       O  0.06188829  0.61329568  0.49082465    -0.83900
C1679       C  0.04975168  0.63082603  0.50123195     1.11300
O1680       O  0.18036984  0.67385422  0.50067705    -0.97000
Zr1681     Zr  0.14843897  0.64713709  0.49323212     1.88900
O1682       O  0.11111017  0.60946139  0.42414107    -0.73600
O1683       O  0.08388214  0.68816663  0.51276320    -0.52900
O1684       O  0.13969812  0.68457734  0.46268638    -0.97600
O1685       O  0.18330868  0.63373107  0.45852655    -0.54800
O1686       O  0.13682729  0.63854034  0.42123766    -0.74100
C1687       C  0.12374354  0.62376773  0.40338906     0.98200
O1688       O  0.07775019  0.57232663  0.46467339    -0.63000
O1689       O  0.16814095  0.56118096  0.61086313    -0.57800
O1690       O  0.11211029  0.56015866  0.49833607    -0.94400
O1691       O  0.14773971  0.55579656  0.52636514    -0.92900
O1692       O  0.11619591  0.56586151  0.66427611    -0.93200
O1693       O  0.07623123  0.56820652  0.62103191    -0.92000
C1694       C  0.12969211  0.54791765  0.50820643     1.17100
H1695       H  0.15078192  0.60034892  0.64984082     0.33000
H1696       H  0.06975385  0.61255638  0.56731087     0.43800
H1697       H  0.14880706  0.59920374  0.47085121     0.37400
H1698       H  0.13606660  0.67993837  0.55370008     0.33900
H1699       H  0.06567458  0.60073709  0.68672889     0.25600
H1700       H  0.07072201  0.69609259  0.52606514     0.31600
H1701       H  0.14418067  0.68347775  0.43218908     0.37500
H1702       H  0.12066061  0.55526935  0.64101970     0.31900
H1703       H  0.15711536  0.54859436  0.60552877     0.30800
H1704       H  0.19500370  0.56649713  0.52262854     0.32500
H1705       H  0.17822464  0.62370824  0.43475718     0.31500
H1706       H  0.07575378  0.56481615  0.58996091     0.35500
H1707       H  0.06558168  0.56866239  0.48567039     0.28200
H1708       H  0.16847270  0.67744437  0.68403047     0.32400
H1709       H  0.18469710  0.67825461  0.47113596     0.35300
H1710       H  0.18295966  0.55515139  0.60049897     0.27900
H1711       H  0.06983596  0.58024729  0.44082992     0.40800
H1712       H  0.05303231  0.67760422  0.59750089     0.30800
H1713       H  0.06596396  0.62495459  0.66510875     0.38400
H1714       H  0.19036299  0.62316842  0.47953554     0.30300
H1715       H  0.09686277  0.69897051  0.51602014     0.30400
H1716       H  0.18043990  0.68338735  0.64034176     0.30600
Zr1717     Zr  0.10306145  0.39664189  0.49800328     2.17500
O1718       O  0.08280819  0.42522010  0.54045500    -0.51700
O1719       O  0.11299077  0.38788329  0.57252852    -0.74900
O1720       O  0.06252955  0.38618510  0.50757025    -0.81700
O1721       O  0.14787729  0.44159410  0.46305757    -0.83500
O1722       O  0.05674840  0.35120035  0.47754410    -0.79100
O1723       O  0.11327203  0.43748088  0.49528239    -0.90700
O1724       O  0.13847045  0.35876729  0.57498422    -0.76700
O1725       O  0.10790158  0.35610101  0.50176229    -0.86200
O1726       O  0.14338872  0.38985016  0.50050752    -0.85900
O1727       O  0.08504036  0.38203002  0.43380380    -0.72600
O1728       O  0.11847524  0.41230916  0.43300935    -0.84800
Zr1729     Zr  0.14606991  0.34963846  0.37401219     2.26400
Zr1730     Zr  0.09085176  0.34140312  0.43744189     2.06300
Zr1731     Zr  0.15858159  0.40466566  0.43510570     2.10000
Zr1732     Zr  0.14817503  0.34941520  0.50242542     1.78800
O1733       O  0.17348889  0.43475975  0.38873745    -0.93600
O1734       O  0.13749180  0.31251081  0.53305900    -0.41400
O1735       O  0.16419308  0.36420021  0.43764000    -0.78000
O1736       O  0.13112866  0.33360723  0.43965429    -0.96700
O1737       O  0.10586492  0.35658237  0.37193285    -0.90000
O1738       O  0.14157421  0.39013573  0.37089772    -0.92800
C1739       C  0.12570459  0.37363381  0.59306062     1.00900
C1740       C  0.13041041  0.44966776  0.48267062     1.13800
C1741       C  0.04975260  0.36886505  0.49817332     1.04600
O1742       O  0.08251352  0.30911376  0.48439376    -0.95000
O1743       O  0.09789563  0.30651348  0.39782113    -0.90700
O1744       O  0.13274477  0.31029194  0.36625846    -0.83900
C1745       C  0.11495345  0.29858712  0.37673316     1.11300
O1746       O  0.07261776  0.42690870  0.37806874    -0.97000
Zr1747     Zr  0.10137981  0.39705504  0.36974828     1.88900
O1748       O  0.13813730  0.36055385  0.29954922    -0.73600
O1749       O  0.05842226  0.33290718  0.39077644    -0.52900
O1750       O  0.06494850  0.38525031  0.33829981    -0.97600
O1751       O  0.11304443  0.43277723  0.33555292    -0.54800
O1752       O  0.11051301  0.38772215  0.29704217    -0.74100
C1753       C  0.12475616  0.37425197  0.27909671     0.98200
O1754       O  0.16758534  0.32099826  0.33382819    -0.63000
O1755       O  0.18845148  0.41166389  0.48820165    -0.57800
O1756       O  0.18734053  0.35780721  0.37121611    -0.94400
O1757       O  0.19295646  0.39345621  0.39836866    -0.92900
O1758       O  0.18367424  0.36041907  0.53800161    -0.93200
O1759       O  0.17884372  0.32145209  0.49567426    -0.92000
C1760       C  0.20005472  0.37522783  0.37996188     1.17100
H1761       H  0.15035470  0.39722807  0.52498909     0.33000
H1762       H  0.13401768  0.31739688  0.44217432     0.43800
H1763       H  0.14921998  0.39655206  0.34625771     0.37400
H1764       H  0.06903186  0.38588547  0.43163742     0.33900
H1765       H  0.14825236  0.31024506  0.55725392     0.25600
H1766       H  0.04981455  0.32073179  0.40594582     0.31600
H1767       H  0.06890048  0.37389186  0.31598722     0.37500
H1768       H  0.18434280  0.35076642  0.56408248     0.31900
H1769       H  0.19768429  0.39745770  0.48836072     0.30800
H1770       H  0.18689196  0.44106427  0.40428721     0.32500
H1771       H  0.12760994  0.42928162  0.32080223     0.31500
H1772       H  0.18034431  0.31894442  0.46444233     0.35500
H1773       H  0.17608574  0.32954979  0.31150749     0.28200
H1774       H  0.07580375  0.41670244  0.56455087     0.32400
H1775       H  0.06741332  0.43057672  0.34864327     0.35300
H1776       H  0.19857575  0.42327861  0.47492368     0.27900
H1777       H  0.17947543  0.31519581  0.35371693     0.40800
H1778       H  0.08149373  0.31580043  0.51346270     0.30800
H1779       H  0.12252070  0.31524484  0.54692776     0.38400
H1780       H  0.11757378  0.44290250  0.35957135     0.30300
H1781       H  0.04845759  0.34657295  0.39246675     0.30400
H1782       H  0.06971883  0.43019987  0.52252444     0.30600
Zr1783     Zr  0.10281328  0.39713404  0.99786375     2.17500
O1784       O  0.08039561  0.42485506  0.03851962    -0.51700
O1785       O  0.11299934  0.38876582  0.07282016    -0.74900
O1786       O  0.06231423  0.38602096  0.00605067    -0.81700
O1787       O  0.14588561  0.44313943  0.95911273    -0.83500
O1788       O  0.05792997  0.35056678  0.97739098    -0.79100
O1789       O  0.11251520  0.43835520  0.99510925    -0.90700
O1790       O  0.13685557  0.35828479  0.07542106    -0.76700
O1791       O  0.10803339  0.35659603  0.00190285    -0.86200
O1792       O  0.14318929  0.39068777  0.00146032    -0.85900
O1793       O  0.08588071  0.38168931  0.93311458    -0.72600
O1794       O  0.11838037  0.41270830  0.93289356    -0.84800
Zr1795     Zr  0.14737037  0.34976203  0.87531129     2.26400
Zr1796     Zr  0.09200206  0.34109221  0.93738293     2.06300
Zr1797     Zr  0.15847895  0.40568501  0.93625232     2.10000
Zr1798     Zr  0.14829600  0.35019527  0.00360329     1.78800
O1799       O  0.17447881  0.43522004  0.88984152    -0.93600
O1800       O  0.13745181  0.31300174  0.03283388    -0.41400
O1801       O  0.16444330  0.36524615  0.93928745    -0.78000
O1802       O  0.13221363  0.33383701  0.94065734    -0.96700
O1803       O  0.10712654  0.35631029  0.87204644    -0.90000
O1804       O  0.14259619  0.39031787  0.87158664    -0.92800
C1805       C  0.12476929  0.37367357  0.09339259     1.00900
C1806       C  0.12866607  0.45106392  0.97975465     1.13800
C1807       C  0.05018428  0.36818505  0.99706108     1.04600
O1808       O  0.08419332  0.30859224  0.98416327    -0.95000
O1809       O  0.10054690  0.30566928  0.89967209    -0.90700
O1810       O  0.13509005  0.30979744  0.86724326    -0.83900
C1811       C  0.11751777  0.29778593  0.87807886     1.11300
O1812       O  0.07389337  0.42690750  0.87844736    -0.97000
Zr1813     Zr  0.10237732  0.39684414  0.86923646     1.88900
O1814       O  0.13969053  0.36020171  0.80025070    -0.73600
O1815       O  0.05902510  0.33314572  0.89169534    -0.52900
O1816       O  0.06633908  0.38583917  0.83548763    -0.97600
O1817       O  0.11457765  0.43215793  0.83402911    -0.54800
O1818       O  0.11179288  0.38704131  0.79691114    -0.74100
C1819       C  0.12617187  0.37357532  0.77928005     0.98200
O1820       O  0.17014805  0.32123034  0.83742122    -0.63000
O1821       O  0.18678557  0.41449613  0.99133030    -0.57800
O1822       O  0.18848671  0.35857439  0.87520988    -0.94400
O1823       O  0.19361657  0.39419578  0.90287667    -0.92900
O1824       O  0.18262546  0.36138174  0.04290963    -0.93200
O1825       O  0.17915396  0.32250474  0.99603569    -0.92000
C1826       C  0.20100301  0.37601203  0.88474922     1.17100
H1827       H  0.14990107  0.39812402  0.02613388     0.33000
H1828       H  0.13539598  0.31770087  0.94347063     0.43800
H1829       H  0.15038600  0.39669558  0.84706144     0.37400
H1830       H  0.06982260  0.38524145  0.93041826     0.33900
H1831       H  0.14662735  0.31143921  0.05938625     0.25600
H1832       H  0.05098059  0.32031864  0.90605025     0.31600
H1833       H  0.06866856  0.36982845  0.82601337     0.37500
H1834       H  0.18159527  0.35321913  0.07067034     0.31900
H1835       H  0.19669047  0.40076308  0.99255572     0.30800
H1836       H  0.18341401  0.44534250  0.90910932     0.32500
H1837       H  0.12842172  0.42812088  0.81745409     0.31500
H1838       H  0.18330960  0.32314726  0.96531758     0.35500
H1839       H  0.17889405  0.32976958  0.81543228     0.28200
H1840       H  0.07441184  0.41639939  0.06364348     0.32400
H1841       H  0.07076472  0.43287568  0.84932352     0.35300
H1842       H  0.19659624  0.42651376  0.97848469     0.27900
H1843       H  0.18176631  0.31582319  0.85825767     0.40800
H1844       H  0.08111921  0.31537794  0.01262743     0.30800
H1845       H  0.12155332  0.31505353  0.04302592     0.38400
H1846       H  0.12035797  0.44197430  0.85755809     0.30300
H1847       H  0.04872085  0.34645454  0.89529714     0.30400
H1848       H  0.06675392  0.42836742  0.02079658     0.30600
Zr1849     Zr  0.35175478  0.35134228  0.37399611     2.17500
O1850       O  0.32299995  0.32801683  0.41038548    -0.51700
O1851       O  0.35992874  0.36036416  0.44937271    -0.74900
O1852       O  0.36397542  0.31131416  0.38335512    -0.81700
O1853       O  0.30649077  0.39551546  0.33955381    -0.83500
O1854       O  0.39933123  0.30699794  0.35436477    -0.79100
O1855       O  0.31069069  0.36081230  0.37135757    -0.90700
O1856       O  0.38891213  0.38608881  0.45305383    -0.76700
O1857       O  0.39209836  0.35737311  0.37859209    -0.86200
O1858       O  0.35748734  0.39184660  0.37792486    -0.85900
O1859       O  0.36738780  0.33461279  0.30963059    -0.72600
O1860       O  0.33638538  0.36713345  0.30907193    -0.84800
Zr1861     Zr  0.39924946  0.39719089  0.25262880     2.26400
Zr1862     Zr  0.40787898  0.34153242  0.31436980     2.06300
Zr1863     Zr  0.34313594  0.40739403  0.31216405     2.10000
Zr1864     Zr  0.39774105  0.39776668  0.38126762     1.78800
O1865       O  0.31301989  0.41974988  0.26320803    -0.93600
O1866       O  0.43370936  0.38921349  0.41773641    -0.41400
O1867       O  0.38348500  0.41409427  0.31630116    -0.78000
O1868       O  0.41488814  0.38198444  0.31850388    -0.96700
O1869       O  0.39284661  0.35687794  0.24908003    -0.90000
O1870       O  0.35880628  0.39170475  0.24779455    -0.92800
C1871       C  0.37437658  0.37267304  0.47051559     1.00900
C1872       C  0.29835556  0.37775807  0.35828891     1.13800
C1873       C  0.38185647  0.29929758  0.37467541     1.04600
O1874       O  0.43967899  0.33133695  0.36121010    -0.95000
O1875       O  0.44321664  0.35037102  0.27688638    -0.90700
O1876       O  0.43928660  0.38516280  0.24506510    -0.83900
C1877       C  0.45117848  0.36746497  0.25557453     1.11300
O1878       O  0.32077330  0.32421552  0.24887103    -0.97000
Zr1879     Zr  0.35245586  0.35140045  0.24571888     1.88900
O1880       O  0.38990566  0.38874755  0.17743018    -0.73600
O1881       O  0.41499080  0.31000808  0.26508296    -0.52900
O1882       O  0.36337060  0.31465294  0.21496575    -0.97600
O1883       O  0.31729899  0.36404022  0.21066720    -0.54800
O1884       O  0.36409379  0.35978861  0.17413275    -0.74100
C1885       C  0.37742051  0.37434728  0.15655307     0.98200
O1886       O  0.42693370  0.42102940  0.21445515    -0.63000
O1887       O  0.33320891  0.43680790  0.36428327    -0.57800
O1888       O  0.38937493  0.43817510  0.25084734    -0.94400
O1889       O  0.35353944  0.44271723  0.27735621    -0.92900
O1890       O  0.38258846  0.43273946  0.41268394    -0.93200
O1891       O  0.42588803  0.42855779  0.37958446    -0.92000
C1892       C  0.37167167  0.45044699  0.25943363     1.17100
H1893       H  0.34969009  0.39835982  0.40232376     0.33000
H1894       H  0.43100781  0.38529227  0.32142342     0.43800
H1895       H  0.35248846  0.39934088  0.22300653     0.37400
H1896       H  0.36401791  0.31848637  0.30709151     0.33900
H1897       H  0.43086792  0.37481479  0.43366210     0.25600
H1898       H  0.42818160  0.30173926  0.27767815     0.31600
H1899       H  0.37754660  0.31780621  0.19863077     0.37500
H1900       H  0.38980206  0.43365677  0.44136970     0.31900
H1901       H  0.34522563  0.44868793  0.36129225     0.30800
H1902       H  0.30612477  0.43334108  0.27703879     0.32500
H1903       H  0.32219323  0.37468988  0.18774275     0.31500
H1904       H  0.42841181  0.43149376  0.34871038     0.35500
H1905       H  0.41816679  0.42917897  0.19194496     0.28200
H1906       H  0.33081766  0.32139591  0.43569421     0.32400
H1907       H  0.31825839  0.31910828  0.21897025     0.35300
H1908       H  0.31919407  0.44405776  0.35266276     0.27900
H1909       H  0.43180744  0.43306850  0.23490830     0.40800
H1910       H  0.43834723  0.34181092  0.38597076     0.30800
H1911       H  0.44450109  0.38480862  0.39479117     0.38400
H1912       H  0.30969921  0.37394401  0.23205615     0.30300
H1913       H  0.40185082  0.29946118  0.26888785     0.30400
H1914       H  0.31998207  0.31483625  0.39119542     0.30600
Zr1915     Zr  0.35267211  0.35062100  0.87644574     2.17500
O1916       O  0.32547164  0.32906505  0.92016450    -0.51700
O1917       O  0.36299523  0.36029899  0.95048493    -0.74900
O1918       O  0.36374216  0.31058763  0.88499122    -0.81700
O1919       O  0.30672923  0.39421739  0.84262874    -0.83500
O1920       O  0.39909390  0.30602144  0.85605460    -0.79100
O1921       O  0.31155123  0.35971469  0.87487211    -0.90700
O1922       O  0.39270567  0.38522084  0.95206927    -0.76700
O1923       O  0.39320685  0.35583492  0.87746698    -0.86200
O1924       O  0.35914098  0.39094750  0.87904140    -0.85900
O1925       O  0.36633944  0.33310380  0.81113948    -0.72600
O1926       O  0.33577796  0.36593378  0.81265897    -0.84800
Zr1927     Zr  0.39715867  0.39509902  0.75056250     2.26400
Zr1928     Zr  0.40697540  0.33948525  0.81203519     2.06300
Zr1929     Zr  0.34301833  0.40607019  0.81446346     2.10000
Zr1930     Zr  0.39957206  0.39613292  0.87909982     1.78800
O1931       O  0.31415388  0.41853184  0.76303371    -0.93600
O1932       O  0.43654988  0.38639969  0.91050588    -0.41400
O1933       O  0.38342372  0.41228444  0.81550978    -0.78000
O1934       O  0.41456615  0.37982981  0.81499029    -0.96700
O1935       O  0.39024635  0.35481573  0.74820687    -0.90000
O1936       O  0.35664766  0.38987209  0.74896403    -0.92800
C1937       C  0.37796675  0.37244021  0.97059573     1.00900
C1938       C  0.29898004  0.37649554  0.86197027     1.13800
C1939       C  0.38157771  0.29855825  0.87665761     1.04600
O1940       O  0.44107609  0.32969016  0.85320594    -0.95000
O1941       O  0.44099806  0.34761343  0.76953219    -0.90700
O1942       O  0.43711212  0.38323674  0.74115572    -0.83900
C1943       C  0.44894658  0.36516820  0.74947099     1.11300
O1944       O  0.31867482  0.32193767  0.75652768    -0.97000
Zr1945     Zr  0.34978627  0.34954779  0.74818170     1.88900
O1946       O  0.38608551  0.38530292  0.67679482    -0.73600
O1947       O  0.41130845  0.30702686  0.76381128    -0.52900
O1948       O  0.35916509  0.31258442  0.71663269    -0.97600
O1949       O  0.31399092  0.36251972  0.71581373    -0.54800
O1950       O  0.35959572  0.35693198  0.67507430    -0.74100
C1951       C  0.37302609  0.37109730  0.65665812     0.98200
O1952       O  0.42186187  0.41803098  0.70430634    -0.63000
O1953       O  0.33057355  0.43382284  0.86773702    -0.57800
O1954       O  0.38835945  0.43663746  0.75147280    -0.94400
O1955       O  0.35469466  0.44246759  0.78579455    -0.92900
O1956       O  0.38691449  0.43069924  0.91566886    -0.93200
O1957       O  0.42818335  0.42620191  0.87048862    -0.92000
C1958       C  0.37204228  0.44971580  0.76473366     1.17100
H1959       H  0.35208469  0.39770594  0.90394725     0.33000
H1960       H  0.43078263  0.38284963  0.81680851     0.43800
H1961       H  0.34991557  0.39749046  0.72455628     0.37400
H1962       H  0.36275489  0.31700081  0.80926342     0.33900
H1963       H  0.43774163  0.39599335  0.93658230     0.25600
H1964       H  0.42503391  0.29888754  0.77453648     0.31600
H1965       H  0.37473975  0.31459033  0.70472975     0.37500
H1966       H  0.38659292  0.44266843  0.89318932     0.31900
H1967       H  0.34399034  0.44391709  0.87234551     0.30800
H1968       H  0.30309157  0.42756159  0.78003147     0.32500
H1969       H  0.31832676  0.37481833  0.69552714     0.31500
H1970       H  0.43122385  0.42667251  0.83930804     0.35500
H1971       H  0.41148711  0.42621819  0.68438733     0.28200
H1972       H  0.33460386  0.32187857  0.94330105     0.32400
H1973       H  0.31369455  0.31802633  0.72706539     0.35300
H1974       H  0.31931975  0.44356581  0.85253721     0.27900
H1975       H  0.42855998  0.43010463  0.72279322     0.40800
H1976       H  0.45064758  0.34371397  0.85284645     0.30800
H1977       H  0.43462514  0.37059257  0.92148462     0.38400
H1978       H  0.30584766  0.37053465  0.73918387     0.30300
H1979       H  0.39837042  0.29668227  0.77069856     0.30400
H1980       H  0.32026995  0.31613150  0.90203195     0.30600
Zr1981     Zr  0.35351411  0.64775380  0.12254886     2.17500
O1982       O  0.32699570  0.66918036  0.07718870    -0.51700
O1983       O  0.36348195  0.63802573  0.04846790    -0.74900
O1984       O  0.36455311  0.68809084  0.11489686    -0.81700
O1985       O  0.30714844  0.60464073  0.15476023    -0.83500
O1986       O  0.39901170  0.69356096  0.14733434    -0.79100
O1987       O  0.31215367  0.63901345  0.12221421    -0.90700
O1988       O  0.39386280  0.61405264  0.04655687    -0.76700
O1989       O  0.39406732  0.64227850  0.12080759    -0.86200
O1990       O  0.35954304  0.60734881  0.11943641    -0.85900
O1991       O  0.36763802  0.66467771  0.18823755    -0.72600
O1992       O  0.33664754  0.63262654  0.18671177    -0.84800
Zr1993     Zr  0.39881333  0.60244139  0.24695408     2.26400
Zr1994     Zr  0.40820814  0.65854570  0.18632707     2.06300
Zr1995     Zr  0.34337898  0.59245499  0.18405307     2.10000
Zr1996     Zr  0.39995898  0.60181557  0.11898599     1.78800
O1997       O  0.31335785  0.58074319  0.23352216    -0.93600
O1998       O  0.43837847  0.60827659  0.09087821    -0.41400
O1999       O  0.38379001  0.58579838  0.18238127    -0.78000
O2000       O  0.41553030  0.61815410  0.18255513    -0.96700
O2001       O  0.39234182  0.64276400  0.25055446    -0.90000
O2002       O  0.35828632  0.60777118  0.24947938    -0.92800
C2003       C  0.37880180  0.62651409  0.02825730     1.00900
C2004       C  0.29948135  0.62211565  0.13446850     1.13800
C2005       C  0.38166337  0.70075152  0.12573072     1.04600
O2006       O  0.44134375  0.66920731  0.14345622    -0.95000
O2007       O  0.44292228  0.64941583  0.22551004    -0.90700
O2008       O  0.43875046  0.61455301  0.25698125    -0.83900
C2009       C  0.45072240  0.63231136  0.24694641     1.11300
O2010       O  0.32413945  0.67905673  0.24712039    -0.97000
Zr2011     Zr  0.35193836  0.64802736  0.25161382     1.88900
O2012       O  0.38836958  0.61018130  0.32172109    -0.73600
O2013       O  0.41506679  0.68903354  0.23810980    -0.52900
O2014       O  0.36430277  0.68339542  0.28617922    -0.97600
O2015       O  0.31481111  0.63686142  0.28070636    -0.54800
O2016       O  0.36021649  0.63679896  0.32410870    -0.74100
C2017       C  0.37424611  0.62304463  0.34220818     0.98200
O2018       O  0.42652401  0.57845042  0.28463338    -0.63000
O2019       O  0.33166917  0.56338346  0.13234101    -0.57800
O2020       O  0.38892767  0.56132087  0.24626261    -0.94400
O2021       O  0.35388016  0.55657956  0.21602597    -0.92900
O2022       O  0.38648273  0.56768566  0.08189545    -0.93200
O2023       O  0.42626848  0.56972899  0.12679093    -0.92000
C2024       C  0.37174449  0.54881928  0.23482492     1.17100
H2025       H  0.35227774  0.60067156  0.09455848     0.33000
H2026       H  0.43169114  0.61502067  0.18040064     0.43800
H2027       H  0.35156423  0.59996133  0.27368360     0.37400
H2028       H  0.36394159  0.68071060  0.19075215     0.33900
H2029       H  0.43786071  0.60259140  0.06100644     0.25600
H2030       H  0.42862221  0.69732173  0.22698684     0.31600
H2031       H  0.37679228  0.67881469  0.30587565     0.37500
H2032       H  0.38055982  0.55764344  0.10492036     0.31900
H2033       H  0.34275523  0.55071261  0.13576871     0.30800
H2034       H  0.30568819  0.56763513  0.21932338     0.32500
H2035       H  0.31804359  0.62405760  0.30062268     0.31500
H2036       H  0.42950735  0.56892692  0.15790744     0.35500
H2037       H  0.41774273  0.57010421  0.30684527     0.28200
H2038       H  0.33639356  0.67581064  0.05388239     0.32400
H2039       H  0.31915862  0.68192645  0.27694228     0.35300
H2040       H  0.31712988  0.55714402  0.14374998     0.27900
H2041       H  0.43133112  0.56658825  0.26387354     0.40800
H2042       H  0.43644754  0.66672823  0.11343194     0.30800
H2043       H  0.43972874  0.62511369  0.08807481     0.38400
H2044       H  0.30663234  0.62961424  0.25640844     0.30300
H2045       H  0.40219567  0.69984124  0.23413056     0.30400
H2046       H  0.32199942  0.68248457  0.09444483     0.30600
Zr2047     Zr  0.35309592  0.64787210  0.62423743     2.17500
O2048       O  0.32484367  0.67037922  0.58486265    -0.51700
O2049       O  0.36122842  0.63821688  0.54905054    -0.74900
O2050       O  0.36447559  0.68843032  0.61755171    -0.81700
O2051       O  0.30754158  0.60311199  0.65594440    -0.83500
O2052       O  0.39980274  0.69292642  0.64711475    -0.79100
O2053       O  0.31219593  0.63806674  0.62520654    -0.90700
O2054       O  0.38807294  0.61034208  0.54638534    -0.76700
O2055       O  0.39350468  0.64233937  0.62099822    -0.70200
O2056       O  0.35900290  0.60741276  0.62076124    -0.85900
O2057       O  0.36800630  0.66449000  0.68953636    -0.72600
O2058       O  0.33703788  0.63177536  0.68827369    -0.84800
Zr2059     Zr  0.39920544  0.60195686  0.74711191     2.26400
Zr2060     Zr  0.40853715  0.65800581  0.68632243     2.06300
Zr2061     Zr  0.34384931  0.59155694  0.68552364     2.10000
Zr2062     Zr  0.39929890  0.60194878  0.61850070     1.78800
O2063       O  0.31431821  0.57989411  0.73607979    -0.93600
O2064       O  0.43365358  0.61453102  0.58090049    -0.41400
O2065       O  0.38415414  0.58537049  0.68245428    -0.78000
O2066       O  0.41553461  0.61759276  0.68209984    -0.96700
O2067       O  0.39278903  0.64225163  0.75069252    -0.90000
O2068       O  0.35873183  0.60724596  0.75054971    -0.92800
C2069       C  0.37423613  0.62427497  0.52842220     1.00900
C2070       C  0.29975250  0.62090380  0.63676768     1.13800
C2071       C  0.38213113  0.70068670  0.62729757     1.04600
O2072       O  0.44109608  0.66843702  0.64174198    -0.95000
O2073       O  0.44387752  0.64857168  0.72370023    -0.90700
O2074       O  0.43943193  0.61331217  0.75352188    -0.83900
C2075       C  0.45160959  0.63089813  0.74357336     1.11300
O2076       O  0.32196956  0.67587211  0.74454305    -0.97000
Zr2077     Zr  0.35233317  0.64755808  0.75246522     1.88900
O2078       O  0.38952957  0.61113229  0.82197089    -0.73600
O2079       O  0.41527952  0.68900252  0.73703639    -0.52900
O2080       O  0.36380760  0.68344582  0.78620644    -0.97600
O2081       O  0.31614740  0.63581478  0.78473084    -0.54800
O2082       O  0.36230590  0.63869477  0.82482687    -0.74100
C2083       C  0.37621102  0.62478847  0.84261675     0.98200
O2084       O  0.42150638  0.57570781  0.79157901    -0.63000
O2085       O  0.33225623  0.56262567  0.63356305    -0.57800
O2086       O  0.39157735  0.56049783  0.74467649    -0.94400
O2087       O  0.35579685  0.55572164  0.71743195    -0.92900
O2088       O  0.38823527  0.56480563  0.58952870    -0.93200
O2089       O  0.43094779  0.57486944  0.62188432    -0.92000
C2090       C  0.37412538  0.54798556  0.73495424     1.17100
H2091       H  0.35141003  0.60075097  0.59621670     0.33000
H2092       H  0.43161120  0.61438121  0.67876236     0.43800
H2093       H  0.35223707  0.59954599  0.77508745     0.37400
H2094       H  0.36451463  0.68054504  0.69255773     0.33900
H2095       H  0.43384842  0.60552420  0.55402711     0.25600
H2096       H  0.42978449  0.69615067  0.72745946     0.31600
H2097       H  0.37979707  0.68093105  0.79568588     0.37500
H2098       H  0.39477326  0.56450983  0.56029539     0.31900
H2099       H  0.34549093  0.55211966  0.63153207     0.30800
H2100       H  0.30426501  0.56937782  0.71970099     0.32500
H2101       H  0.32015832  0.62367533  0.80557921     0.31500
H2102       H  0.43593715  0.57497182  0.65221674     0.35500
H2103       H  0.43474419  0.57097667  0.77391140     0.28200
H2104       H  0.33331152  0.67777126  0.56112368     0.32400
H2105       H  0.31885558  0.68152518  0.77385420     0.35300
H2106       H  0.32026347  0.55357526  0.64828446     0.27900
H2107       H  0.42817383  0.58517820  0.81480194     0.40800
H2108       H  0.44790045  0.65362913  0.63310609     0.30800
H2109       H  0.43027174  0.63037443  0.57150113     0.38400
H2110       H  0.30788250  0.62765419  0.76156725     0.30300
H2111       H  0.40338485  0.70056685  0.73054714     0.30400
H2112       H  0.32052104  0.68308391  0.60422257     0.30600
C2113       C  0.35920057  0.63438852  0.95858529    -0.21700
C2114       C  0.37877991  0.62701191  0.98069944    -0.09800
C2115       C  0.39770080  0.61905766  0.95683786     0.29100
C2116       C  0.39663226  0.61798081  0.91209818    -0.21700
C2117       C  0.37689208  0.62502447  0.89011043    -0.09800
C2118       C  0.35816098  0.63338023  0.91394724     0.29100
F2119       F  0.33851622  0.64011035  0.89432976    -0.20300
H2120       H  0.34436277  0.64048952  0.97589344     0.17500
H2121       H  0.41143643  0.61195241  0.89459836     0.17500
F2122       F  0.41739704  0.61254525  0.97651469    -0.20300
C2123       C  0.35614743  0.63341142  0.41236885    -0.21700
C2124       C  0.37397344  0.62246480  0.38988061    -0.09800
C2125       C  0.39164425  0.61206309  0.41354709     0.29100
C2126       C  0.39141722  0.61274580  0.45829732    -0.21700
C2127       C  0.37373591  0.62391062  0.48077758    -0.09800
C2128       C  0.35602682  0.63424946  0.45717187     0.29100
F2129       F  0.33849593  0.64506172  0.47716235    -0.20300
H2130       H  0.34220578  0.64154218  0.39525112     0.17500
H2131       H  0.40544692  0.60473149  0.47536631     0.17500
F2132       F  0.40952387  0.60174715  0.39369975    -0.20300
C2133       C  0.35380560  0.51170484  0.75165379    -0.21700
C2134       C  0.37462143  0.52298897  0.74389270    -0.09800
C2135       C  0.39489899  0.50993480  0.74256570     0.29100
C2136       C  0.39407827  0.48604662  0.74867215    -0.21700
C2137       C  0.37311154  0.47483431  0.75645933    -0.09800
C2138       C  0.35295357  0.48808842  0.75784832     0.29100
F2139       F  0.33214524  0.47826420  0.76429745    -0.20300
H2140       H  0.33792162  0.52124510  0.75280348     0.17500
H2141       H  0.40985582  0.47634750  0.74758491     0.17500
F2142       F  0.41533016  0.52005369  0.73399693    -0.20300
C2143       C  0.35678089  0.36018475  0.54006197    -0.21700
C2144       C  0.37439328  0.37164088  0.51818284    -0.09800
C2145       C  0.39194914  0.38221208  0.54248204     0.29100
C2146       C  0.39122757  0.38206523  0.58719169    -0.21700
C2147       C  0.37343499  0.37095369  0.60905484    -0.09800
C2148       C  0.35637448  0.35956015  0.58486601     0.29100
F2149       F  0.33911294  0.34790933  0.60423134    -0.20300
H2150       H  0.34318311  0.35169548  0.52250293     0.17500
H2151       H  0.40488440  0.39047750  0.60473390     0.17500
F2152       F  0.41012909  0.39248228  0.52334919    -0.20300
C2153       C  0.36086772  0.36207009  0.08637096    -0.21700
C2154       C  0.37796987  0.37412573  0.10901716    -0.09800
C2155       C  0.39542105  0.38505433  0.08573126     0.29100
C2156       C  0.39544301  0.38414953  0.04091952    -0.21700
C2157       C  0.37817437  0.37225416  0.01825879    -0.09800
C2158       C  0.36097631  0.36099523  0.04173346     0.29100
F2159       F  0.34403349  0.34909784  0.02181757    -0.20300
H2160       H  0.34716055  0.35340218  0.10322140     0.17500
H2161       H  0.40909918  0.39283706  0.02397461     0.17500
F2162       F  0.41268702  0.39626040  0.10609291    -0.20300
C2163       C  0.35173997  0.51121548  0.24023120    -0.21700
C2164       C  0.37236434  0.52367573  0.24187559    -0.09800
C2165       C  0.39306294  0.51159848  0.24686867     0.29100
C2166       C  0.39291439  0.48763742  0.25074864    -0.21700
C2167       C  0.37217287  0.47534976  0.25008981    -0.09800
C2168       C  0.35158132  0.48743944  0.24404539     0.29100
F2169       F  0.33118649  0.47629407  0.24135320    -0.20300
H2170       H  0.33551815  0.51989128  0.23584715     0.17500
H2171       H  0.40899491  0.47874660  0.25533777     0.17500
F2172       F  0.41343850  0.52280927  0.24730366    -0.20300
C2173       C  0.23821534  0.35488174  0.88040842    -0.21700
C2174       C  0.22575171  0.37530594  0.87587742    -0.09800
C2175       C  0.23744892  0.39570640  0.86621198     0.29100
C2176       C  0.26113774  0.39579185  0.86241120    -0.21700
C2177       C  0.27385884  0.37556695  0.86791071    -0.09800
C2178       C  0.26212888  0.35494887  0.87646630     0.29100
F2179       F  0.27361878  0.33487050  0.88037373    -0.20300
H2180       H  0.22949733  0.33899252  0.88798474     0.17500
H2181       H  0.26951817  0.41191344  0.85520569     0.17500
F2182       F  0.22595456  0.41565869  0.86013401    -0.20300
C2183       C  0.13866308  0.35756077  0.66349525    -0.21700
C2184       C  0.12598945  0.37413394  0.64071101    -0.09800
C2185       C  0.11400387  0.39085038  0.66406618     0.29100
C2186       C  0.11450545  0.39064776  0.70883677    -0.21700
C2187       C  0.12685633  0.37381595  0.73162311    -0.09800
C2188       C  0.13912575  0.35734042  0.70826275     0.29100
F2189       F  0.15125757  0.34069651  0.72842036    -0.20300
H2190       H  0.14817858  0.34445976  0.64668502     0.17500
H2191       H  0.10502564  0.40376920  0.72566963     0.17500
F2192       F  0.10175534  0.40743609  0.64394181    -0.20300
C2193       C  0.13405697  0.35565616  0.20929252    -0.21700
C2194       C  0.12553658  0.37459500  0.23166248    -0.09800
C2195       C  0.11709223  0.39347904  0.20818204     0.29100
C2196       C  0.11682770  0.39307443  0.16340215    -0.21700
C2197       C  0.12489224  0.37390830  0.14097782    -0.09800
C2198       C  0.13364960  0.35515859  0.16459233     0.29100
F2199       F  0.14138966  0.33598983  0.14477247    -0.20300
H2200       H  0.14055649  0.34088311  0.22643584     0.17500
H2201       H  0.11037875  0.40787369  0.14628687     0.17500
F2202       F  0.10929144  0.41251673  0.22835335    -0.20300
C2203       C  0.26200543  0.35605587  0.37442178    -0.21700
C2204       C  0.27302790  0.37668319  0.36314734    -0.09800
C2205       C  0.25940941  0.39613728  0.35451330     0.29100
C2206       C  0.23567368  0.39499004  0.35805095    -0.21700
C2207       C  0.22474512  0.37458270  0.37003902    -0.09800
C2208       C  0.23805457  0.35494628  0.37764732     0.29100
F2209       F  0.22804791  0.33506750  0.39032835    -0.20300
H2210       H  0.27190890  0.34076880  0.38087546     0.17500
H2211       H  0.22575427  0.41035481  0.35218142     0.17500
F2212       F  0.26887852  0.41655956  0.34340253    -0.20300
C2213       C  0.23912133  0.64184080  0.61394038    -0.21700
C2214       C  0.22660752  0.62139537  0.61823189    -0.09800
C2215       C  0.23832277  0.60099021  0.62767265     0.29100
C2216       C  0.26198806  0.60109810  0.63301719    -0.21700
C2217       C  0.27469619  0.62146850  0.62878563    -0.09800
C2218       C  0.26300525  0.64191074  0.61876368     0.29100
F2219       F  0.27449647  0.66198014  0.61405331    -0.20300
H2220       H  0.23045567  0.65767189  0.60593522     0.17500
H2221       H  0.27036061  0.58504073  0.64052540     0.17500
F2222       F  0.22684772  0.58088386  0.63241699    -0.20300
C2223       C  0.15017008  0.51097637  0.49742606    -0.21700
C2224       C  0.12932689  0.52292475  0.49971754    -0.09800
C2225       C  0.10869384  0.51045899  0.49713227     0.29100
C2226       C  0.10907310  0.48657369  0.49240463    -0.21700
C2227       C  0.12997061  0.47473906  0.48986175    -0.09800
C2228       C  0.15056083  0.48724207  0.49261311     0.29100
F2229       F  0.17116749  0.47650419  0.49181155    -0.20300
H2230       H  0.16634839  0.52002064  0.49972519     0.17500
H2231       H  0.09299437  0.47735053  0.49031451     0.17500
F2232       F  0.08818743  0.52118951  0.50047274    -0.20300
C2233       C  0.13557123  0.64437702  0.83254503    -0.21700
C2234       C  0.12285726  0.62788489  0.85548305    -0.09800
C2235       C  0.11061119  0.61118989  0.83234876     0.29100
C2236       C  0.11149872  0.61083409  0.78768413    -0.21700
C2237       C  0.12448284  0.62709271  0.76472768    -0.09800
C2238       C  0.13638112  0.64407035  0.78778645     0.29100
F2239       F  0.14868259  0.66051020  0.76734198    -0.20300
H2240       H  0.14504851  0.65762348  0.84923570     0.17500
H2241       H  0.10203011  0.59754338  0.77109882     0.17500
F2242       F  0.09801547  0.59491080  0.85262295    -0.20300
C2243       C  0.10877760  0.61035771  0.28719149    -0.21700
C2244       C  0.12538819  0.62319732  0.26477766    -0.09800
C2245       C  0.14125161  0.63619858  0.28852020     0.29100
C2246       C  0.14043087  0.63624284  0.33326062    -0.21700
C2247       C  0.12386349  0.62336304  0.35569858    -0.09800
C2248       C  0.10798649  0.61037065  0.33197984     0.29100
F2249       F  0.09151121  0.59783602  0.35178576    -0.20300
H2250       H  0.09615305  0.60027586  0.27005013     0.17500
H2251       H  0.15304694  0.64636208  0.35035197     0.17500
F2252       F  0.15775224  0.64874054  0.26879308    -0.20300
C2253       C  0.26287405  0.64310597  0.11605369    -0.21700
C2254       C  0.27436559  0.62253287  0.12574917    -0.09800
C2255       C  0.26140641  0.60211765  0.12822893     0.29100
C2256       C  0.23781747  0.60236570  0.12142689    -0.21700
C2257       C  0.22628054  0.62285955  0.11260510    -0.09800
C2258       C  0.23900820  0.64332587  0.10972724     0.29100
F2259       F  0.22852189  0.66334412  0.09956104    -0.20300
H2260       H  0.27230947  0.65905383  0.11378598     0.17500
H2261       H  0.22844624  0.58635765  0.12349983     0.17500
F2262       F  0.27145384  0.58166150  0.13680016    -0.20300
C2263       C  0.10709860  0.51173921  0.00283270    -0.21700
C2264       C  0.12660948  0.52493659  0.99337055    -0.09800
C2265       C  0.14636186  0.51377880  0.97857043     0.29100
C2266       C  0.14668672  0.48997289  0.97399131    -0.21700
C2267       C  0.12748833  0.47649453  0.98477970    -0.09800
C2268       C  0.10756228  0.48773722  0.99915814     0.29100
F2269       F  0.08859347  0.47563578  0.01009316    -0.20300
H2270       H  0.09176683  0.51994223  0.01476496     0.17500
H2271       H  0.16228639  0.48207703  0.96257191     0.17500
F2272       F  0.16548772  0.52592957  0.96863354    -0.20300
C2273       C  0.51023794  0.38586085  0.73325663    -0.21700
C2274       C  0.52260670  0.36567127  0.74161282    -0.09800
C2275       C  0.51034103  0.34486061  0.74457738     0.29100
C2276       C  0.48641360  0.34467869  0.74340597    -0.21700
C2277       C  0.47392672  0.36512745  0.73929556    -0.09800
C2278       C  0.48617091  0.38565638  0.73200455     0.29100
F2279       F  0.47501734  0.40585188  0.72689490    -0.20300
H2280       H  0.51909492  0.40211000  0.73038430     0.17500
H2281       H  0.47763652  0.32850615  0.74812752     0.17500
F2282       F  0.52134184  0.32466547  0.75090174    -0.20300
C2283       C  0.51274076  0.38710946  0.23984264    -0.21700
C2284       C  0.52462705  0.36650186  0.24669010    -0.09800
C2285       C  0.51198363  0.34592089  0.24893787     0.29100
C2286       C  0.48809463  0.34632257  0.24857282    -0.21700
C2287       C  0.47611010  0.36712363  0.24573246    -0.09800
C2288       C  0.48871872  0.38748173  0.23922835     0.29100
F2289       F  0.47800614  0.40799003  0.23549416    -0.20300
H2290       H  0.52196979  0.40317953  0.23755378     0.17500
H2291       H  0.47895180  0.33029347  0.25254194     0.17500
F2292       F  0.52260780  0.32537528  0.25340785    -0.20300
C2293       C  0.63357330  0.35524749  0.53913393    -0.21700
C2294       C  0.62405804  0.37372476  0.51664500    -0.09800
C2295       C  0.61355301  0.39154378  0.54007010     0.29100
C2296       C  0.61260499  0.39070606  0.58473323    -0.21700
C2297       C  0.62216841  0.37227879  0.60728041    -0.09800
C2298       C  0.63267242  0.35442316  0.58383803     0.29100
F2299       F  0.64198604  0.33597671  0.60381719    -0.20300
H2300       H  0.64151402  0.34120605  0.52208077     0.17500
H2301       H  0.60466828  0.40477473  0.60170350     0.17500
F2302       F  0.60448878  0.41009905  0.52006962    -0.20300
C2303       C  0.64105347  0.36173565  0.03820976    -0.21700
C2304       C  0.62439285  0.37473763  0.01667234    -0.09800
C2305       C  0.60846579  0.38725175  0.04131998     0.29100
C2306       C  0.60914255  0.38641497  0.08603373    -0.21700
C2307       C  0.62569010  0.37329894  0.10756632    -0.09800
C2308       C  0.64185631  0.36107246  0.08297605     0.29100
F2309       F  0.65870012  0.34863095  0.10188154    -0.20300
H2310       H  0.65368769  0.35210986  0.02040681     0.17500
H2311       H  0.59651161  0.39605832  0.10381320     0.17500
F2312       F  0.59206392  0.40032314  0.02254822    -0.20300
C2313       C  0.51349936  0.64914891  0.75159096    -0.21700
C2314       C  0.52490622  0.62810636  0.74714723    -0.09800
C2315       C  0.51199783  0.60771899  0.74778134     0.29100
C2316       C  0.48803876  0.60865394  0.74978209    -0.21700
C2317       C  0.47661348  0.62986304  0.75131613    -0.09800
C2318       C  0.48966864  0.65006966  0.75390446     0.29100
F2319       F  0.47938172  0.67082303  0.75723731    -0.20300
H2320       H  0.52305794  0.66508012  0.75186706     0.17500
H2321       H  0.47839768  0.59282613  0.74737185     0.17500
F2322       F  0.52230736  0.58704924  0.74308747    -0.20300
C2323       C  0.64950362  0.48520473  0.73222575    -0.21700
C2324       C  0.62908526  0.47406966  0.74343276    -0.09800
C2325       C  0.60973695  0.48735020  0.75331120     0.29100
C2326       C  0.61095717  0.51135272  0.75217053    -0.21700
C2327       C  0.63135291  0.52259332  0.74038060    -0.09800
C2328       C  0.65064182  0.50907611  0.73004975     0.29100
F2329       F  0.67073489  0.51876283  0.71770847    -0.20300
H2330       H  0.66472987  0.47532766  0.72519101     0.17500
H2331       H  0.59578117  0.52112075  0.75992820     0.17500
F2332       F  0.58991320  0.47716389  0.76572308    -0.20300
C2333       C  0.48774920  0.65338927  0.25235472    -0.21700
C2334       C  0.47564460  0.63269440  0.25691554    -0.09800
C2335       C  0.48816953  0.61241090  0.26422123     0.29100
C2336       C  0.51218647  0.61273962  0.26303791    -0.21700
C2337       C  0.52411690  0.63313088  0.25393272    -0.09800
C2338       C  0.51159670  0.65368091  0.25059747     0.29100
F2339       F  0.52222559  0.67402095  0.24325456    -0.20300
H2340       H  0.47870200  0.66937127  0.24751272     0.17500
H2341       H  0.52132555  0.59669375  0.26612422     0.17500
F2342       F  0.47737715  0.59194515  0.26878186    -0.20300
C2343       C  0.64557474  0.62872387  0.95655123    -0.21700
C2344       C  0.62607749  0.62132686  0.97884994    -0.09800
C2345       C  0.60749409  0.61223073  0.95520543     0.29100
C2346       C  0.60827810  0.61115148  0.91051380    -0.21700
C2347       C  0.62748528  0.61909203  0.88809862    -0.09800
C2348       C  0.64641462  0.62749313  0.91178319     0.29100
F2349       F  0.66585068  0.63448709  0.89183974    -0.20300
H2350       H  0.66028625  0.63536387  0.97376857     0.17500
H2351       H  0.59345868  0.60471176  0.89337645     0.17500
F2352       F  0.58813433  0.60494224  0.97502461    -0.20300
C2353       C  0.64052969  0.64070570  0.40934458    -0.21700
C2354       C  0.62651392  0.62458556  0.38783944    -0.09800
C2355       C  0.61389592  0.60889565  0.41240224     0.29100
C2356       C  0.61506752  0.60960930  0.45703191    -0.21700
C2357       C  0.62866540  0.62603299  0.47860738    -0.09800
C2358       C  0.64167049  0.64143175  0.45410017     0.29100
F2359       F  0.65513777  0.65746958  0.47310760    -0.20300
H2360       H  0.65058734  0.65305913  0.39154547     0.17500
H2361       H  0.60502267  0.59720119  0.47472499     0.17500
F2362       F  0.60030210  0.59288793  0.39359921    -0.20300
C2363       C  0.64883097  0.48755967  0.25455191    -0.21700
C2364       C  0.62859226  0.47466198  0.24967265    -0.09800
C2365       C  0.60779959  0.48662314  0.24392293     0.29100
C2366       C  0.60751777  0.51076958  0.24311387    -0.21700
C2367       C  0.62790869  0.52348298  0.24749257    -0.09800
C2368       C  0.64856438  0.51149244  0.25337729     0.29100
F2369       F  0.66866883  0.52294281  0.25817893    -0.20300
H2370       H  0.66511007  0.47909702  0.25953921     0.17500
H2371       H  0.59142149  0.51951942  0.23778736     0.17500
F2372       F  0.58769659  0.47511435  0.23980799    -0.20300
C2373       C  0.98812508  0.61065387  0.48967010    -0.21700
C2374       C  0.97625754  0.63148699  0.49382740    -0.09800
C2375       C  0.98890994  0.65208141  0.49273198     0.29100
C2376       C  0.01281488  0.65167896  0.49161670    -0.21700
C2377       C  0.02480041  0.63083001  0.49144253    -0.09800
C2378       C  0.01216675  0.61026218  0.48854920     0.29100
F2379       F  0.02293536  0.58968520  0.48844405    -0.20300
H2380       H  0.97889576  0.59453988  0.49020956     0.17500
H2381       H  0.02200867  0.66780499  0.49307155     0.17500
F2382       F  0.97826729  0.67271254  0.49467301    -0.20300
C2383       C  0.76494043  0.60115180  0.63163929    -0.21700
C2384       C  0.77721338  0.62184693  0.63413626    -0.09800
C2385       C  0.76476330  0.64251741  0.63637797     0.29100
C2386       C  0.74070082  0.64232076  0.63395681    -0.21700
C2387       C  0.72855500  0.62154539  0.63082725    -0.09800
C2388       C  0.74106891  0.60090574  0.63044094     0.29100
F2389       F  0.73027345  0.58029168  0.62885871    -0.20300
H2390       H  0.77387202  0.58492368  0.63010885     0.17500
H2391       H  0.73153074  0.65839388  0.63593087     0.17500
F2392       F  0.77572860  0.66293145  0.64031016    -0.20300
C2393       C  0.98684166  0.61045558  0.99659814    -0.21700
C2394       C  0.97462473  0.63116618  0.99878298    -0.09800
C2395       C  0.98695321  0.65195639  0.99664324     0.29100
C2396       C  0.01084313  0.65190573  0.99522235    -0.21700
C2397       C  0.02310435  0.63125514  0.99586234    -0.09800
C2398       C  0.01084154  0.61043280  0.99520564     0.29100
F2399       F  0.02197138  0.59005453  0.99674097    -0.20300
H2400       H  0.97789957  0.59420751  0.99840256     0.17500
H2401       H  0.01982962  0.66816787  0.99541751     0.17500
F2402       F  0.97604319  0.67246795  0.99742251    -0.20300
C2403       C  0.85766118  0.63234484  0.79147068    -0.21700
C2404       C  0.87701488  0.62423827  0.76982922    -0.09800
C2405       C  0.89462196  0.61360615  0.79379330     0.29100
C2406       C  0.89288919  0.61155715  0.83825629    -0.21700
C2407       C  0.87374083  0.62011375  0.85997111    -0.09800
C2408       C  0.85590589  0.63024937  0.83587681     0.29100
F2409       F  0.83665799  0.63823033  0.85501879    -0.20300
H2410       H  0.84368599  0.64019941  0.77398218     0.17500
H2411       H  0.90691007  0.60381134  0.85578800     0.17500
F2412       F  0.91384583  0.60559077  0.77461346    -0.20300
C2413       C  0.85725367  0.63702410  0.33746398    -0.21700
C2414       C  0.87394816  0.62465648  0.36056796    -0.09800
C2415       C  0.89053567  0.61241951  0.33736542     0.29100
C2416       C  0.89048356  0.61285504  0.29252882    -0.21700
C2417       C  0.87404610  0.62557388  0.26937525    -0.09800
C2418       C  0.85725547  0.63752768  0.29258782     0.29100
F2419       F  0.84082301  0.64981758  0.27216283    -0.20300
H2420       H  0.84410496  0.64653387  0.35413446     0.17500
H2421       H  0.90365483  0.60332445  0.27596408     0.17500
F2422       F  0.90716756  0.60036697  0.35777169    -0.20300
C2423       C  0.73722463  0.63889731  0.13162719    -0.21700
C2424       C  0.72481630  0.61863161  0.12407999    -0.09800
C2425       C  0.73693789  0.59817578  0.11729038     0.29100
C2426       C  0.76086385  0.59804274  0.11830009    -0.21700
C2427       C  0.77345910  0.61825027  0.12620321    -0.09800
C2428       C  0.76126083  0.63878398  0.13274852     0.29100
F2429       F  0.77243358  0.65888654  0.13921481    -0.20300
H2430       H  0.72827345  0.65479396  0.13774186     0.17500
H2431       H  0.76954230  0.58198035  0.11233572     0.17500
F2432       F  0.72564472  0.57826354  0.10926478    -0.20300
C2433       C  0.98855611  0.34843938  0.00077200    -0.21700
C2434       C  0.97661887  0.36930286  0.00178326    -0.09800
C2435       C  0.98916995  0.38970045  0.00812755     0.29100
C2436       C  0.01321389  0.38916122  0.01018612    -0.21700
C2437       C  0.02514099  0.36835111  0.00578952    -0.09800
C2438       C  0.01238603  0.34787834  0.00277827     0.29100
F2439       F  0.02290599  0.32722607  0.99956539    -0.20300
H2440       H  0.97945366  0.33238450  0.99680336     0.17500
H2441       H  0.02249838  0.40520220  0.01242206     0.17500
F2442       F  0.97843652  0.41028765  0.00936892    -0.20300
C2443       C  0.76088354  0.36014984  0.88043523    -0.21700
C2444       C  0.77344356  0.38068182  0.87776965    -0.09800
C2445       C  0.76139289  0.40142269  0.87312140     0.29100
C2446       C  0.73747014  0.40150779  0.87073497    -0.21700
C2447       C  0.72482286  0.38101568  0.87353762    -0.09800
C2448       C  0.73684425  0.36027766  0.87891527     0.29100
F2449       F  0.72547104  0.34004366  0.88186575    -0.20300
H2450       H  0.76967063  0.34400288  0.88498697     0.17500
H2451       H  0.72881239  0.41774751  0.86643708     0.17500
F2452       F  0.77274763  0.42169539  0.87040344    -0.20300
C2453       C  0.89009751  0.48615334  0.00789969    -0.21700
C2454       C  0.86916081  0.47420088  0.00661521    -0.09800
C2455       C  0.84861729  0.48684709  0.00615683     0.29100
C2456       C  0.84914067  0.51071634  0.00717923    -0.21700
C2457       C  0.87002976  0.52270017  0.00796363    -0.09800
C2458       C  0.89059212  0.51016951  0.00795126     0.29100
F2459       F  0.91115073  0.52103787  0.00883269    -0.20300
H2460       H  0.90616076  0.47691911  0.00736445     0.17500
H2461       H  0.83303324  0.51989814  0.00737478     0.17500
F2462       F  0.82791348  0.47623339  0.00440166    -0.20300
C2463       C  0.98888862  0.39116749  0.50851996    -0.21700
C2464       C  0.97626444  0.37067561  0.50562813    -0.09800
C2465       C  0.98821939  0.34970056  0.50703153     0.29100
C2466       C  0.01210964  0.34935026  0.50823195    -0.21700
C2467       C  0.02483728  0.36979307  0.50777979    -0.09800
C2468       C  0.01295606  0.39079296  0.50941127     0.29100
F2469       F  0.02449739  0.41098575  0.50806342    -0.20300
H2470       H  0.98021181  0.40753465  0.50720781     0.17500
H2471       H  0.02070160  0.33292331  0.50729144     0.17500
F2472       F  0.97689052  0.32937495  0.50528457    -0.20300
C2473       C  0.85736037  0.36239728  0.66631873    -0.21700
C2474       C  0.87407099  0.37547312  0.64454481    -0.09800
C2475       C  0.89024579  0.38766652  0.66892191     0.29100
C2476       C  0.88958243  0.38679775  0.71362974    -0.21700
C2477       C  0.87292802  0.37368815  0.73550331    -0.09800
C2478       C  0.85679687  0.36139475  0.71110864     0.29100
F2479       F  0.84044262  0.34840084  0.73021488    -0.20300
H2480       H  0.84459211  0.35275096  0.64867858     0.17500
H2481       H  0.90241799  0.39642673  0.73112132     0.17500
F2482       F  0.90695784  0.40021773  0.64983897    -0.20300
C2483       C  0.85638011  0.36915745  0.16771979    -0.21700
C2484       C  0.87589371  0.37666658  0.14517960    -0.09800
C2485       C  0.89481460  0.38485744  0.16850117     0.29100
C2486       C  0.89409875  0.38556504  0.21321036    -0.21700
C2487       C  0.87463981  0.37796039  0.23574249    -0.09800
C2488       C  0.85570383  0.36975578  0.21244529     0.29100
F2489       F  0.83642007  0.36257727  0.23268367    -0.20300
H2490       H  0.84146110  0.36287769  0.15066863     0.17500
H2491       H  0.90908239  0.39168421  0.23026580     0.17500
F2492       F  0.91428905  0.39151632  0.14833029    -0.20300
C2493       C  0.73778944  0.40033864  0.37480507    -0.21700
C2494       C  0.72620005  0.37924649  0.37295747    -0.09800
C2495       C  0.73915865  0.35892314  0.37125238     0.29100
C2496       C  0.76316040  0.35989467  0.37229680    -0.21700
C2497       C  0.77465678  0.38106628  0.37509595    -0.09800
C2498       C  0.76162957  0.40132454  0.37573906     0.29100
F2499       F  0.77188066  0.42221683  0.37697913    -0.20300
H2500       H  0.72831572  0.41627619  0.37516361     0.17500
H2501       H  0.77273127  0.34401954  0.37183567     0.17500
F2502       F  0.72876642  0.33820926  0.36718229    -0.20300
C2503       C  0.84845414  0.48935082  0.50254236    -0.21700
C2504       C  0.86907300  0.47692838  0.50314938    -0.09800
C2505       C  0.88991048  0.48910525  0.50382179     0.29100
C2506       C  0.89000996  0.51312023  0.50449486    -0.21700
C2507       C  0.86938568  0.52545869  0.50519750    -0.09800
C2508       C  0.84853687  0.51327316  0.50380992     0.29100
F2509       F  0.82816692  0.52446807  0.50358164    -0.20300
H2510       H  0.83213791  0.48050883  0.50097290     0.17500
H2511       H  0.90626794  0.52205988  0.50583182     0.17500
F2512       F  0.91021125  0.47786518  0.50261038    -0.20300
C2513       C  0.13829476  0.26098874  0.86263844    -0.21700
C2514       C  0.11751269  0.27281220  0.86836223    -0.09800
C2515       C  0.09707085  0.26003737  0.87012983     0.29100
C2516       C  0.09765333  0.23612031  0.86991055    -0.21700
C2517       C  0.11856332  0.22420752  0.86816552    -0.09800
C2518       C  0.13888231  0.23692675  0.86253876     0.29100
F2519       F  0.15948535  0.22628937  0.86027797    -0.20300
H2520       H  0.15432440  0.27031638  0.86101872     0.17500
H2521       H  0.08163766  0.22689698  0.87325145     0.17500
F2522       F  0.07648656  0.27059721  0.87397166    -0.20300
C2523       C  0.09559656  0.23707033  0.36840582    -0.21700
C2524       C  0.11651281  0.22552580  0.37414840    -0.09800
C2525       C  0.13697298  0.23828255  0.37466565     0.29100
C2526       C  0.13633265  0.26211504  0.37143507    -0.21700
C2527       C  0.11533574  0.27372187  0.36867026    -0.09800
C2528       C  0.09494223  0.26096084  0.36593215     0.29100
F2529       F  0.07434064  0.27159140  0.36277990    -0.20300
H2530       H  0.07960909  0.22762840  0.36755152     0.17500
H2531       H  0.15223485  0.27157492  0.37454579     0.17500
F2532       F  0.15742999  0.22801360  0.38211167    -0.20300
C2533       C  0.13867568  0.13645047  0.66358203    -0.21700
C2534       C  0.12420209  0.12096885  0.64159632    -0.09800
C2535       C  0.11104725  0.10551408  0.66577855     0.29100
C2536       C  0.11206557  0.10598858  0.71057644    -0.21700
C2537       C  0.12618865  0.12180899  0.73254441    -0.09800
C2538       C  0.13966888  0.13695929  0.70827128     0.29100
F2539       F  0.15357152  0.15259041  0.72738526    -0.20300
H2540       H  0.14923904  0.14855793  0.64622053     0.17500
H2541       H  0.10153037  0.09391840  0.72807545     0.17500
F2542       F  0.09709082  0.09001389  0.64644127    -0.20300
C2543       C  0.11209824  0.10976299  0.21036724    -0.21700
C2544       C  0.12688848  0.12466682  0.23290124    -0.09800
C2545       C  0.14178180  0.13880276  0.20941324     0.29100
C2546       C  0.14160508  0.13810346  0.16467253    -0.21700
C2547       C  0.12652962  0.12345429  0.14220950    -0.09800
C2548       C  0.11181777  0.10916217  0.16574003     0.29100
F2549       F  0.09681855  0.09484099  0.14592898    -0.20300
H2550       H  0.10036582  0.09856931  0.22723577     0.17500
H2551       H  0.15323190  0.14933376  0.14763471     0.17500
F2552       F  0.15638482  0.15346104  0.22936588    -0.20300
C2553       C  0.40085900  0.23735409  0.89006224    -0.21700
C2554       C  0.37998952  0.22560945  0.88506755    -0.09800
C2555       C  0.35944282  0.23815587  0.88533171     0.29100
C2556       C  0.36003307  0.26208818  0.88705938    -0.21700
C2557       C  0.38106029  0.27388596  0.88750400    -0.09800
C2558       C  0.40146366  0.26125519  0.89100325     0.29100
F2559       F  0.42209684  0.27197809  0.89273064    -0.20300
H2560       H  0.41689422  0.22805389  0.89057938     0.17500
H2561       H  0.34406952  0.27138261  0.88410226     0.17500
F2562       F  0.33897138  0.22757312  0.87916460    -0.20300
C2563       C  0.26256662  0.13911999  0.87260239    -0.21700
C2564       C  0.27499570  0.11867410  0.87774346    -0.09800
C2565       C  0.26284855  0.09799104  0.88244216     0.29100
C2566       C  0.23892430  0.09786025  0.88243905    -0.21700
C2567       C  0.22637486  0.11825787  0.87721779    -0.09800
C2568       C  0.23852307  0.13894591  0.87187575     0.29100
F2569       F  0.22726201  0.15908968  0.86700941    -0.20300
H2570       H  0.27148822  0.15521093  0.86786282     0.17500
H2571       H  0.23018056  0.08165068  0.88695479     0.17500
F2572       F  0.27411053  0.07782139  0.88731025    -0.20300
C2573       C  0.36070642  0.26255018  0.38763868    -0.21700
C2574       C  0.38165666  0.27440827  0.38483949    -0.09800
C2575       C  0.40212872  0.26166117  0.38492337     0.29100
C2576       C  0.40146086  0.23775596  0.38388091    -0.21700
C2577       C  0.38047020  0.22592992  0.38250070    -0.09800
C2578       C  0.36004032  0.23855080  0.38624599     0.29100
F2579       F  0.33935068  0.22794393  0.38468021    -0.20300
H2580       H  0.34467652  0.27184740  0.38756106     0.17500
H2581       H  0.41749544  0.22851312  0.38193522     0.17500
F2582       F  0.42285203  0.27223632  0.38373160    -0.20300
C2583       C  0.35581362  0.13733445  0.58532545    -0.21700
C2584       C  0.37083396  0.12284877  0.60810433    -0.09800
C2585       C  0.38530995  0.10823810  0.58476943     0.29100
C2586       C  0.38521596  0.10878568  0.54006642    -0.21700
C2587       C  0.37062652  0.12371185  0.51730608    -0.09800
C2588       C  0.35566849  0.13782000  0.54057556     0.29100
F2589       F  0.34106000  0.15232737  0.52037356    -0.20300
H2590       H  0.34425952  0.14867388  0.60212607     0.17500
H2591       H  0.39684782  0.09749924  0.52331184     0.17500
F2592       F  0.39970941  0.09346368  0.60483478    -0.20300
C2593       C  0.38986210  0.11076540  0.08617237    -0.21700
C2594       C  0.37722396  0.12727412  0.10854836    -0.09800
C2595       C  0.36513909  0.14402229  0.08479689     0.29100
C2596       C  0.36522828  0.14366496  0.04005595    -0.21700
C2597       C  0.37757176  0.12695317  0.01766774    -0.09800
C2598       C  0.39023253  0.11063875  0.04138227     0.29100
F2599       F  0.40284048  0.09429249  0.02153668    -0.20300
H2600       H  0.39944540  0.09778379  0.10330904     0.17500
H2601       H  0.35571743  0.15669660  0.02290984     0.17500
F2602       F  0.35321962  0.16093972  0.10450991    -0.20300
C2603       C  0.23637246  0.10093911  0.37193286    -0.21700
C2604       C  0.22474953  0.12176935  0.37722377    -0.09800
C2605       C  0.23760382  0.14214351  0.38037073     0.29100
C2606       C  0.26160537  0.14147646  0.37859948    -0.21700
C2607       C  0.27320977  0.12055249  0.37339532    -0.09800
C2608       C  0.26020847  0.10025129  0.36982681     0.29100
F2609       F  0.27044878  0.07957895  0.36455844    -0.20300
H2610       H  0.22692112  0.08498503  0.36972323     0.17500
H2611       H  0.27109020  0.15740635  0.38070483     0.17500
F2612       F  0.22709585  0.16256223  0.38681636    -0.20300
C2613       C  0.36101851  0.76213874  0.61953717    -0.21700
C2614       C  0.38176229  0.77437765  0.62083184    -0.09800
C2615       C  0.40244617  0.76211613  0.61767512     0.29100
C2616       C  0.40231528  0.73815040  0.61667908    -0.21700
C2617       C  0.38163994  0.72579065  0.61871430    -0.09800
C2618       C  0.36088201  0.73811175  0.61877376     0.29100
F2619       F  0.34048568  0.72706849  0.62196605    -0.20300
H2620       H  0.34485796  0.77109593  0.62221181     0.17500
H2621       H  0.41854756  0.72920665  0.61622022     0.17500
F2622       F  0.42289911  0.77323475  0.61728953    -0.20300
C2623       C  0.35106108  0.98977357  0.73668394    -0.21700
C2624       C  0.37072277  0.97694713  0.74742943    -0.09800
C2625       C  0.39087394  0.98901804  0.75841402     0.29100
C2626       C  0.39109223  0.01311026  0.75883225    -0.21700
C2627       C  0.37124657  0.02565753  0.74890949    -0.09800
C2628       C  0.35124820  0.01371047  0.73760627     0.29100
F2629       F  0.33178693  0.02522366  0.72745472    -0.20300
H2630       H  0.33529676  0.98128253  0.72747594     0.17500
H2631       H  0.40659054  0.02197207  0.76845826     0.17500
F2632       F  0.41040098  0.97768818  0.76859538    -0.20300
C2633       C  0.35897474  0.76147633  0.11731491    -0.21700
C2634       C  0.37942004  0.77417467  0.11886243    -0.09800
C2635       C  0.40040743  0.76241490  0.11523039     0.29100
C2636       C  0.40090670  0.73849139  0.11412798    -0.21700
C2637       C  0.38057869  0.72568729  0.11634849    -0.09800
C2638       C  0.35947921  0.73744982  0.11604888     0.29100
F2639       F  0.33936969  0.72582391  0.11845204    -0.20300
H2640       H  0.34260896  0.77003910  0.12012609     0.17500
H2641       H  0.41734643  0.72992998  0.11365233     0.17500
F2642       F  0.42060523  0.77398364  0.11485596    -0.20300
C2643       C  0.38262283  0.89436673  0.91781643    -0.21700
C2644       C  0.37280106  0.87604447  0.89521229    -0.09800
C2645       C  0.36185486  0.85837381  0.91865142     0.29100
C2646       C  0.36139471  0.85887990  0.96332698    -0.21700
C2647       C  0.37161371  0.87694539  0.98585731    -0.09800
C2648       C  0.38191455  0.89498273  0.96254936     0.29100
F2649       F  0.39119063  0.91338705  0.98281418    -0.20300
H2650       H  0.39074730  0.90838334  0.90086998     0.17500
H2651       H  0.35339178  0.84479908  0.98031092     0.17500
F2652       F  0.35182964  0.84026798  0.89872868    -0.20300
C2653       C  0.35435510  0.86749732  0.41748769    -0.21700
C2654       C  0.37304405  0.87662837  0.39449578    -0.09800
C2655       C  0.39178781  0.88540134  0.41770127     0.29100
C2656       C  0.39183382  0.88479069  0.46248399    -0.21700
C2657       C  0.37321456  0.87557909  0.48547191    -0.09800
C2658       C  0.35431149  0.86710455  0.46235341     0.29100
F2659       F  0.33556848  0.85885543  0.48292773    -0.20300
H2660       H  0.33956550  0.86071538  0.40072339     0.17500
H2661       H  0.40671794  0.89140294  0.47919299     0.17500
F2662       F  0.41037218  0.89412973  0.39732435    -0.20300
C2663       C  0.39040165  0.01216113  0.25100203    -0.21700
C2664       C  0.36950329  0.02407866  0.25354818    -0.09800
C2665       C  0.34905181  0.01120952  0.25595210     0.29100
C2666       C  0.34956279  0.98729651  0.25544570    -0.21700
C2667       C  0.37035614  0.97533585  0.25285033    -0.09800
C2668       C  0.39089062  0.98805020  0.25090922     0.29100
F2669       F  0.41136797  0.97726594  0.24745735    -0.20300
H2670       H  0.40643393  0.02150365  0.24990746     0.17500
H2671       H  0.33346169  0.97805811  0.25661538     0.17500
F2672       F  0.32835647  0.02167332  0.25851102    -0.20300
C2673       C  0.13847346  0.76135159  0.63474671    -0.21700
C2674       C  0.11765548  0.77327114  0.63079443    -0.09800
C2675       C  0.09711505  0.76046979  0.62991230     0.29100
C2676       C  0.09764208  0.73652937  0.62966444    -0.21700
C2677       C  0.11852012  0.72458758  0.63004106    -0.09800
C2678       C  0.13898916  0.73730633  0.63416600     0.29100
F2679       F  0.15964908  0.72671897  0.63420162    -0.20300
H2680       H  0.15456175  0.77061231  0.63551346     0.17500
H2681       H  0.08157413  0.72731490  0.62709290     0.17500
F2682       F  0.07642870  0.77095425  0.62709395    -0.20300
C2683       C  0.10903651  0.98598910  0.50139535    -0.21700
C2684       C  0.12956359  0.97376916  0.49609765    -0.09800
C2685       C  0.14983499  0.98606144  0.48805861     0.29100
C2686       C  0.14958995  0.00999198  0.48637458    -0.21700
C2687       C  0.12917779  0.02238011  0.49265552    -0.09800
C2688       C  0.10875735  0.01000789  0.49960738     0.29100
F2689       F  0.08841847  0.02097025  0.50372725    -0.20300
H2690       H  0.09321148  0.97694112  0.50795505     0.17500
H2691       H  0.16554792  0.01883712  0.47999289     0.17500
F2692       F  0.16991542  0.97494558  0.48139951    -0.20300
C2693       C  0.23756637  0.89908167  0.62636384    -0.21700
C2694       C  0.22591342  0.87825338  0.62070161    -0.09800
C2695       C  0.23873409  0.85792577  0.61731617     0.29100
C2696       C  0.26274762  0.85862422  0.61964059    -0.21700
C2697       C  0.27437401  0.87951863  0.62601498    -0.09800
C2698       C  0.26137818  0.89976482  0.62957943     0.29100
F2699       F  0.27158372  0.92036108  0.63649582    -0.20300
H2700       H  0.22813993  0.91500025  0.62867533     0.17500
H2701       H  0.27220238  0.84272604  0.61741960     0.17500
F2702       F  0.22815501  0.83750825  0.61057402    -0.20300
C2703       C  0.13871070  0.76077758  0.12876229    -0.21700
C2704       C  0.11794604  0.77283763  0.13071432    -0.09800
C2705       C  0.09749157  0.76040515  0.13675202     0.29100
C2706       C  0.09776273  0.73643045  0.13789474    -0.21700
C2707       C  0.11834341  0.72428675  0.13281738    -0.09800
C2708       C  0.13895616  0.73676712  0.12926128     0.29100
F2709       F  0.15908884  0.72588825  0.12194177    -0.20300
H2710       H  0.15465002  0.76988123  0.12355783     0.17500
H2711       H  0.08165725  0.72730744  0.14068389     0.17500
F2712       F  0.07708211  0.77137030  0.13986822    -0.20300
C2713       C  0.14465170  0.86584112  0.83733099    -0.21700
C2714       C  0.12617750  0.87603394  0.85924736    -0.09800
C2715       C  0.10830655  0.88569942  0.83507811     0.29100
C2716       C  0.10891924  0.88495278  0.79037923    -0.21700
C2717       C  0.12726192  0.87458892  0.76841752    -0.09800
C2718       C  0.14519571  0.86498978  0.79253119     0.29100
F2719       F  0.16338527  0.85501778  0.77308337    -0.20300
H2720       H  0.15879122  0.85834699  0.85490276     0.17500
H2721       H  0.09469372  0.89234412  0.77289563     0.17500
F2722       F  0.08991706  0.89540950  0.85435836    -0.20300
C2723       C  0.14242020  0.86551101  0.29084361    -0.21700
C2724       C  0.12387434  0.87482168  0.26824641    -0.09800
C2725       C  0.10574345  0.88480425  0.29162158     0.29100
C2726       C  0.10632188  0.88537432  0.33636774    -0.21700
C2727       C  0.12468409  0.87571850  0.35901362    -0.09800
C2728       C  0.14291155  0.86592298  0.33560624     0.29100
F2729       F  0.16136152  0.85675444  0.35577294    -0.20300
H2730       H  0.15667215  0.85793117  0.27386134     0.17500
H2731       H  0.09198418  0.89280024  0.35332863     0.17500
F2732       F  0.08699984  0.89341228  0.27149432    -0.20300
C2733       C  0.10916578  0.98739660  0.01018419    -0.21700
C2734       C  0.12914793  0.97467197  0.00258897    -0.09800
C2735       C  0.14975105  0.98646751  0.99501606     0.29100
C2736       C  0.15035062  0.01039632  0.99520867    -0.21700
C2737       C  0.13040257  0.02333054  0.00257153    -0.09800
C2738       C  0.10971415  0.01146320  0.01025581     0.29100
F2739       F  0.08987776  0.02298589  0.01678944    -0.20300
H2740       H  0.09318633  0.97868893  0.01704234     0.17500
H2741       H  0.16652501  0.01880549  0.98869494     0.17500
F2742       F  0.16933506  0.97480230  0.98668707    -0.20300
C2743       C  0.26082299  0.85926852  0.13280537    -0.21700
C2744       C  0.27287803  0.88009996  0.12938772    -0.09800
C2745       C  0.26033983  0.90053877  0.12528120     0.29100
C2746       C  0.23644144  0.90006632  0.12425325    -0.21700
C2747       C  0.22426478  0.87929921  0.12765129    -0.09800
C2748       C  0.23676814  0.85881914  0.13230463     0.29100
F2749       F  0.22587632  0.83831733  0.13518849    -0.20300
H2750       H  0.27003755  0.84332589  0.13688229     0.17500
H2751       H  0.22742004  0.91613131  0.12029705     0.17500
F2752       F  0.27116321  0.92106212  0.12172430    -0.20300
C2753       C  0.48664931  0.11339738  0.73896002    -0.21700
C2754       C  0.47457478  0.13399525  0.74426290    -0.09800
C2755       C  0.48695487  0.15475174  0.74485172     0.29100
C2756       C  0.51087058  0.15463842  0.74421710    -0.21700
C2757       C  0.52305666  0.13391876  0.74273956    -0.09800
C2758       C  0.51065040  0.11328391  0.73825805     0.29100
F2759       F  0.52157738  0.09280607  0.73685433    -0.20300
H2760       H  0.47759472  0.09718496  0.73820018     0.17500
H2761       H  0.51988804  0.17081783  0.74687085     0.17500
F2762       F  0.47600918  0.17519354  0.74778571    -0.20300
C2763       C  0.59923660  0.26234835  0.88162295    -0.21700
C2764       C  0.62003185  0.27420552  0.87655647    -0.09800
C2765       C  0.64061419  0.26168311  0.87661960     0.29100
C2766       C  0.64010212  0.23769403  0.87888742    -0.21700
C2767       C  0.61911439  0.22582032  0.88056337    -0.09800
C2768       C  0.59871415  0.23847550  0.88354068     0.29100
F2769       F  0.57810948  0.22775988  0.88625178    -0.20300
H2770       H  0.58315502  0.27155971  0.88236000     0.17500
H2771       H  0.65605420  0.22838232  0.87609614     0.17500
F2772       F  0.66104771  0.27238259  0.87092114    -0.20300
C2773       C  0.51163174  0.15223826  0.24576333    -0.21700
C2774       C  0.52406091  0.13168453  0.24502069    -0.09800
C2775       C  0.51190871  0.11078682  0.24373161     0.29100
C2776       C  0.48792799  0.11057818  0.24641734    -0.21700
C2777       C  0.47561249  0.13115277  0.24997825    -0.09800
C2778       C  0.48775371  0.15205637  0.24795058     0.29100
F2779       F  0.47663375  0.17244780  0.24936484    -0.20300
H2780       H  0.52047624  0.16857472  0.24632322     0.17500
H2781       H  0.47910387  0.09425657  0.24790056     0.17500
F2782       F  0.52318859  0.09048651  0.24312019    -0.20300
C2783       C  0.64103959  0.23596148  0.38652433    -0.21700
C2784       C  0.62006682  0.22409993  0.38361582    -0.09800
C2785       C  0.59964055  0.23682207  0.38420729     0.29100
C2786       C  0.60026672  0.26070426  0.38227876    -0.21700
C2787       C  0.62121465  0.27261438  0.38052812    -0.09800
C2788       C  0.64166868  0.26003056  0.38526697     0.29100
F2789       F  0.66231591  0.27075063  0.38571524    -0.20300
H2790       H  0.65705127  0.22662851  0.38682967     0.17500
H2791       H  0.58417943  0.26985871  0.38039298     0.17500
F2792       F  0.57895541  0.22615832  0.38464717    -0.20300
C2793       C  0.60637665  0.11112876  0.58331079    -0.21700
C2794       C  0.62309207  0.12358827  0.60571009    -0.09800
C2795       C  0.64005624  0.13547709  0.58224947     0.29100
C2796       C  0.63993206  0.13510316  0.53762740    -0.21700
C2797       C  0.62314462  0.12276533  0.51521706    -0.09800
C2798       C  0.60629663  0.11070968  0.53862132     0.29100
F2799       F  0.58943936  0.09874959  0.51856520    -0.20300
H2800       H  0.59312025  0.10187909  0.60034599     0.17500
H2801       H  0.65318871  0.14438539  0.52064500     0.17500
F2802       F  0.65704743  0.14732669  0.60216525    -0.20300
C2803       C  0.60599086  0.11677852  0.03763771    -0.21700
C2804       C  0.62440320  0.12671151  0.01493669    -0.09800
C2805       C  0.64270970  0.13605025  0.03852921     0.29100
C2806       C  0.64259909  0.13527425  0.08338094    -0.21700
C2807       C  0.62428093  0.12521755  0.10605422    -0.09800
C2808       C  0.60586661  0.11602118  0.08248581     0.29100
F2809       F  0.58753021  0.10658449  0.10257838    -0.20300
H2810       H  0.59148190  0.10954496  0.02067300     0.17500
H2811       H  0.65709972  0.14248150  0.10039638     0.17500
F2812       F  0.66094717  0.14564325  0.01843624    -0.20300
C2813       C  0.98798241  0.15104677  0.00237054    -0.21700
C2814       C  0.97547178  0.13060500  0.00686281    -0.09800
C2815       C  0.98766894  0.10999285  0.01300940     0.29100
C2816       C  0.01175111  0.10987055  0.01179858    -0.21700
C2817       C  0.02409023  0.13017299  0.00393648    -0.09800
C2818       C  0.01183623  0.15091472  0.00064132     0.29100
F2819       F  0.02276685  0.17112830  0.99361120    -0.20300
H2820       H  0.97923871  0.16722989  0.99793102     0.17500
H2821       H  0.02064053  0.09365476  0.01426435     0.17500
F2822       F  0.97643898  0.08972025  0.01683692    -0.20300
C2823       C  0.90152157  0.26192382  0.87239497    -0.21700
C2824       C  0.88046826  0.27361097  0.87203119    -0.09800
C2825       C  0.86017265  0.26084312  0.86675363     0.29100
C2826       C  0.86097606  0.23686353  0.86512853    -0.21700
C2827       C  0.88193177  0.22518711  0.86916566    -0.09800
C2828       C  0.90231809  0.23805156  0.87120734     0.29100
F2829       F  0.92301990  0.22760926  0.87435181    -0.20300
H2830       H  0.91748152  0.27125819  0.87575464     0.17500
H2831       H  0.84499687  0.22742735  0.86384203     0.17500
F2832       F  0.83943470  0.27127571  0.86676514    -0.20300
C2833       C  0.76247839  0.14302586  0.86977777    -0.21700
C2834       C  0.77389683  0.12204042  0.87563710    -0.09800
C2835       C  0.76113773  0.10156478  0.87393423     0.29100
C2836       C  0.73755840  0.10215575  0.86750200    -0.21700
C2837       C  0.72599921  0.12306357  0.86273321    -0.09800
C2838       C  0.73869173  0.14358923  0.86346350     0.29100
F2839       F  0.72826182  0.16407171  0.85705926    -0.20300
H2840       H  0.77190272  0.15902187  0.87079364     0.17500
H2841       H  0.72825055  0.08608146  0.86660337     0.17500
F2842       F  0.77142425  0.08083172  0.87801930    -0.20300
C2843       C  0.98751326  0.15179479  0.51461181    -0.21700
C2844       C  0.97447953  0.13176053  0.50947663    -0.09800
C2845       C  0.98598573  0.11057720  0.50614608     0.29100
C2846       C  0.00994338  0.10983989  0.50457407    -0.21700
C2847       C  0.02289990  0.13008712  0.50663726    -0.09800
C2848       C  0.01144504  0.15099401  0.51376514     0.29100
F2849       F  0.02335670  0.17082543  0.51862530    -0.20300
H2850       H  0.97914026  0.16824663  0.51782377     0.17500
H2851       H  0.01826933  0.09354730  0.49900967     0.17500
F2852       F  0.97416728  0.09072888  0.50075388    -0.20300
C2853       C  0.86090523  0.23994113  0.36613678    -0.21700
C2854       C  0.88179522  0.22812007  0.37007947    -0.09800
C2855       C  0.90230681  0.24081273  0.37031635     0.29100
C2856       C  0.90175485  0.26469477  0.37123226    -0.21700
C2857       C  0.88081497  0.27653130  0.37168300    -0.09800
C2858       C  0.86035217  0.26396029  0.36696763     0.29100
F2859       F  0.83973951  0.27466519  0.36681664    -0.20300
H2860       H  0.84484798  0.23062120  0.36558679     0.17500
H2861       H  0.91782565  0.27392574  0.37361355     0.17500
F2862       F  0.92294176  0.23016523  0.37164253    -0.20300
C2863       C  0.89082213  0.11346027  0.71047897    -0.21700
C2864       C  0.87378036  0.12530392  0.73344152    -0.09800
C2865       C  0.85693175  0.13726506  0.71017660     0.29100
C2866       C  0.85723631  0.13729211  0.66539367    -0.21700
C2867       C  0.87409818  0.12522622  0.64245264    -0.09800
C2868       C  0.89104411  0.11337795  0.66565726     0.29100
F2869       F  0.90806988  0.10196007  0.64529368    -0.20300
H2870       H  0.90420362  0.10423795  0.72721542     0.17500
H2871       H  0.84393201  0.14662947  0.64866193     0.17500
F2872       F  0.83983186  0.14861706  0.73041523    -0.20300
C2873       C  0.88982116  0.11277981  0.16569819    -0.21700
C2874       C  0.87548940  0.12767739  0.14288089    -0.09800
C2875       C  0.86212418  0.14361224  0.16602624     0.29100
C2876       C  0.86288569  0.14416022  0.21072308    -0.21700
C2877       C  0.87704077  0.12909335  0.23356339    -0.09800
C2878       C  0.89074211  0.11346709  0.21034967     0.29100
F2879       F  0.90496635  0.09855100  0.23049427    -0.20300
H2880       H  0.90038532  0.10045473  0.14901527     0.17500
H2881       H  0.85232421  0.15647461  0.22743507     0.17500
F2882       F  0.84832130  0.15887700  0.14576569    -0.20300
C2883       C  0.76175822  0.14350638  0.37603368    -0.21700
C2884       C  0.77466047  0.12323758  0.37327631    -0.09800
C2885       C  0.76317609  0.10250101  0.36475045     0.29100
C2886       C  0.73942121  0.10199235  0.36020408    -0.21700
C2887       C  0.72631798  0.12206461  0.36411427    -0.09800
C2888       C  0.73779378  0.14297374  0.37164320     0.29100
F2889       F  0.72597440  0.16291846  0.37418295    -0.20300
H2890       H  0.77016486  0.15968377  0.38265734     0.17500
H2891       H  0.73125878  0.08564812  0.35391882     0.17500
F2892       F  0.77492888  0.08257650  0.36061127    -0.20300
C2893       C  0.86103905  0.76390275  0.63675773    -0.21700
C2894       C  0.88176599  0.77615743  0.63447420    -0.09800
C2895       C  0.90248850  0.76386313  0.63352850     0.29100
C2896       C  0.90232304  0.74002228  0.63113230    -0.21700
C2897       C  0.88160251  0.72783270  0.62971648    -0.09800
C2898       C  0.86088046  0.73993425  0.63420347     0.29100
F2899       F  0.84041794  0.72889009  0.63237005    -0.20300
H2900       H  0.84483339  0.77289562  0.63721671     0.17500
H2901       H  0.91851649  0.73111235  0.62854627     0.17500
F2902       F  0.92297695  0.77488918  0.63256359    -0.20300
C2903       C  0.98625378  0.84784115  0.49412158    -0.21700
C2904       C  0.97423375  0.86868003  0.49526381    -0.09800
C2905       C  0.98679293  0.88931524  0.49491479     0.29100
C2906       C  0.01077810  0.88896389  0.49627056    -0.21700
C2907       C  0.02269957  0.86810448  0.49848711    -0.09800
C2908       C  0.01017063  0.84748434  0.49576623     0.29100
F2909       F  0.02095307  0.82689455  0.49639377    -0.20300
H2910       H  0.97707846  0.83168522  0.49408893     0.17500
H2911       H  0.01994214  0.90507228  0.49855512     0.17500
F2912       F  0.97598212  0.90982608  0.49725859    -0.20300
C2913       C  0.89190888  0.98888456  0.49703873    -0.21700
C2914       C  0.87130449  0.97752428  0.50700038    -0.09800
C2915       C  0.85116698  0.99065121  0.51152364     0.29100
C2916       C  0.85169429  0.01430787  0.50578376    -0.21700
C2917       C  0.87215110  0.02559361  0.49554490    -0.09800
C2918       C  0.89238677  0.01274352  0.49150692     0.29100
F2919       F  0.91237162  0.02308404  0.48052719    -0.20300
H2920       H  0.90767825  0.97932924  0.49366815     0.17500
H2921       H  0.83591349  0.02387876  0.50905942     0.17500
F2922       F  0.83071626  0.98070570  0.52072614    -0.20300
C2923       C  0.90011506  0.76220703  0.13119080    -0.21700
C2924       C  0.87955015  0.77459823  0.13062897    -0.09800
C2925       C  0.85863618  0.76244805  0.13153540     0.29100
C2926       C  0.85850616  0.73842923  0.13063731    -0.21700
C2927       C  0.87912065  0.72616232  0.12816413    -0.09800
C2928       C  0.89998414  0.73832299  0.12990552     0.29100
F2929       F  0.92036255  0.72718973  0.12857515    -0.20300
H2930       H  0.91643615  0.77106824  0.13070105     0.17500
H2931       H  0.84224653  0.72950844  0.12881186     0.17500
F2932       F  0.83832302  0.77365916  0.12943429    -0.20300
C2933       C  0.98671049  0.84897595  0.99342641    -0.21700
C2934       C  0.97478160  0.86978121  0.99643034    -0.09800
C2935       C  0.98739013  0.89043160  0.99584591     0.29100
C2936       C  0.01140148  0.88999213  0.99559311    -0.21700
C2937       C  0.02326607  0.86904626  0.99625122    -0.09800
C2938       C  0.01061475  0.84853811  0.99319848     0.29100
F2939       F  0.02129596  0.82791333  0.99185447    -0.20300
H2940       H  0.97749417  0.83285005  0.99311504     0.17500
H2941       H  0.02066024  0.90605293  0.99783567     0.17500
F2942       F  0.97671187  0.91098203  0.99920500    -0.20300
C2943       C  0.89372655  0.88249185  0.83831492    -0.21700
C2944       C  0.87439041  0.87465092  0.86060218    -0.09800
C2945       C  0.85558468  0.86615830  0.83682691     0.29100
C2946       C  0.85621243  0.86565570  0.79204227    -0.21700
C2947       C  0.87538852  0.87384124  0.76973297    -0.09800
C2948       C  0.89432600  0.88206062  0.79349626     0.29100
F2949       F  0.91360860  0.88949907  0.77358351    -0.20300
H2950       H  0.90855371  0.88879491  0.85561724     0.17500
H2951       H  0.84136411  0.85936435  0.77478858     0.17500
F2952       F  0.83620801  0.85893498  0.85666129    -0.20300
C2953       C  0.88795628  0.89175551  0.33832285    -0.21700
C2954       C  0.87651982  0.87439163  0.36079890    -0.09800
C2955       C  0.86541655  0.85685857  0.33725000     0.29100
C2956       C  0.86534571  0.85723565  0.29253689    -0.21700
C2957       C  0.87652606  0.87478499  0.27009974    -0.09800
C2958       C  0.88817427  0.89193557  0.29363075     0.29100
F2959       F  0.89967677  0.90913693  0.27374084    -0.20300
H2960       H  0.89670620  0.90538955  0.35531364     0.17500
H2961       H  0.85659939  0.84361938  0.27547908     0.17500
F2962       F  0.85462218  0.83918388  0.35709491    -0.20300
C2963       C  0.89135343  0.01228727  0.99366246    -0.21700
C2964       C  0.87095126  0.02469379  0.99891297    -0.09800
C2965       C  0.85070656  0.01285254  0.00897069     0.29100
C2966       C  0.85084837  0.98913142  0.01328120    -0.21700
C2967       C  0.87113285  0.97651244  0.00770330    -0.09800
C2968       C  0.89148527  0.98836140  0.99771795     0.29100
F2969       F  0.91152170  0.97698574  0.99241120    -0.20300
H2970       H  0.90710024  0.02108010  0.98546364     0.17500
H2971       H  0.83488571  0.98065881  0.02120481     0.17500
F2972       F  0.83075041  0.02424322  0.01533566    -0.20300
C2973       C  0.63707874  0.76335607  0.60857357    -0.21700
C2974       C  0.61641591  0.77473194  0.61792371    -0.09800
C2975       C  0.59643678  0.76144087  0.62294816     0.29100
C2976       C  0.59754943  0.73756223  0.62244720    -0.21700
C2977       C  0.61855057  0.72606808  0.61751500    -0.09800
C2978       C  0.63821339  0.73927730  0.60837138     0.29100
F2979       F  0.65880845  0.72913501  0.60197788    -0.20300
H2980       H  0.65273403  0.77304597  0.60414855     0.17500
H2981       H  0.58190794  0.72806272  0.62827142     0.17500
F2982       F  0.57586670  0.77139371  0.63069709    -0.20300
C2983       C  0.51159827  0.84776769  0.75945266    -0.21700
C2984       C  0.52397296  0.86840410  0.76124480    -0.09800
C2985       C  0.51165871  0.88905972  0.76596419     0.29100
C2986       C  0.48760083  0.88901670  0.76457604    -0.21700
C2987       C  0.47536031  0.86845469  0.75891927    -0.09800
C2988       C  0.48769805  0.84769029  0.75846446     0.29100
F2989       F  0.47677966  0.82719856  0.75519618    -0.20300
H2990       H  0.52047159  0.83155286  0.75680006     0.17500
H2991       H  0.47864132  0.90523833  0.76546310     0.17500
F2992       F  0.52271478  0.90947279  0.76884699    -0.20300
C2993       C  0.60491920  0.98787846  0.74596550    -0.21700
C2994       C  0.62583369  0.97595207  0.74776735    -0.09800
C2995       C  0.64619157  0.98845269  0.75371655     0.29100
C2996       C  0.64564260  0.01217346  0.75762667    -0.21700
C2997       C  0.62489450  0.02432009  0.75533126    -0.09800
C2998       C  0.60440698  0.01190228  0.74923725     0.29100
F2999       F  0.58395085  0.02281653  0.74675822    -0.20300
H3000       H  0.58903259  0.97865228  0.74086056     0.17500
H3001       H  0.66175845  0.02106956  0.76226233     0.17500
F3002       F  0.66679640  0.97777496  0.75599000    -0.20300
C3003       C  0.73712799  0.89902666  0.63052931    -0.21700
C3004       C  0.72505904  0.87816969  0.63054591    -0.09800
C3005       C  0.73752052  0.85756528  0.62806794     0.29100
C3006       C  0.76154415  0.85803448  0.62583405    -0.21700
C3007       C  0.77346877  0.87900714  0.62531975    -0.09800
C3008       C  0.76093053  0.89951761  0.62805386     0.29100
F3009       F  0.77166661  0.92018258  0.62875697    -0.20300
H3010       H  0.72808271  0.91516914  0.63273926     0.17500
H3011       H  0.77078055  0.84201288  0.62347489     0.17500
F3012       F  0.72661749  0.83701591  0.62890211    -0.20300
C3013       C  0.59889474  0.76201060  0.11314628    -0.21700
C3014       C  0.61954712  0.77424331  0.11655596    -0.09800
C3015       C  0.64030681  0.76193508  0.11551744     0.29100
C3016       C  0.64015675  0.73786717  0.11495799    -0.21700
C3017       C  0.61937984  0.72563180  0.11541222    -0.09800
C3018       C  0.59873650  0.73806474  0.11234185     0.29100
F3019       F  0.57822229  0.72711589  0.11047395    -0.20300
H3020       H  0.58267961  0.77099671  0.11304970     0.17500
H3021       H  0.65630096  0.72883970  0.11716765     0.17500
F3022       F  0.66070992  0.77298043  0.11882153    -0.20300
C3023       C  0.51184769  0.88726700  0.25798088    -0.21700
C3024       C  0.52364166  0.86633126  0.25488261    -0.09800
C3025       C  0.51093771  0.84583696  0.25455570     0.29100
C3026       C  0.48704346  0.84642563  0.25346003    -0.21700
C3027       C  0.47519863  0.86740360  0.25330137    -0.09800
C3028       C  0.48785392  0.88785472  0.25735874     0.29100
F3029       F  0.47721041  0.90849999  0.25764500    -0.20300
H3030       H  0.52117847  0.90332601  0.25829930     0.17500
H3031       H  0.47779940  0.83035276  0.25129904     0.17500
F3032       F  0.52160604  0.82519169  0.25396234    -0.20300
C3033       C  0.61590178  0.89208736  0.91643088    -0.21700
C3034       C  0.62629094  0.87409536  0.89405930    -0.09800
C3035       C  0.63724430  0.85656654  0.91773227     0.29100
C3036       C  0.63766569  0.85721030  0.96251528    -0.21700
C3037       C  0.62702539  0.87509273  0.98488622    -0.09800
C3038       C  0.61615122  0.89263234  0.96114255     0.29100
F3039       F  0.60567439  0.91046506  0.98087097    -0.20300
H3040       H  0.60752866  0.90588783  0.89931358     0.17500
H3041       H  0.64599366  0.84339966  0.97968344     0.17500
F3042       F  0.64720231  0.83846213  0.89788746    -0.20300
C3043       C  0.61186111  0.89179815  0.46182939    -0.21700
C3044       C  0.62508827  0.87580194  0.48488563    -0.09800
C3045       C  0.63868780  0.86020431  0.46188366     0.29100
C3046       C  0.63879029  0.86060367  0.41718667    -0.21700
C3047       C  0.62516487  0.87627738  0.39412110    -0.09800
C3048       C  0.61175958  0.89200051  0.41706737     0.29100
F3049       F  0.59837604  0.90749285  0.39648117    -0.20300
H3050       H  0.60130584  0.90415289  0.47842973     0.17500
H3051       H  0.64932018  0.84818775  0.40066660     0.17500
F3052       F  0.65151477  0.84414553  0.48225370    -0.20300
C3053       C  0.60452001  0.98721095  0.24002523    -0.21700
C3054       C  0.62469365  0.97470479  0.24752683    -0.09800
C3055       C  0.64475266  0.98643341  0.25915062     0.29100
C3056       C  0.64482060  0.01012050  0.26221125    -0.21700
C3057       C  0.62484638  0.02292133  0.25453124    -0.09800
C3058       C  0.60453086  0.01120298  0.24343703     0.29100
F3059       F  0.58472136  0.02274040  0.23642135    -0.20300
H3060       H  0.58890965  0.97845842  0.23070238     0.17500
H3061       H  0.66075443  0.01840474  0.27107914     0.17500
F3062       F  0.66438652  0.97496097  0.26823403    -0.20300
C3063       C  0.73768772  0.85769947  0.13207036    -0.21700
C3064       C  0.72591836  0.87855122  0.13600692    -0.09800
C3065       C  0.73842092  0.89919546  0.13553765     0.29100
C3066       C  0.76210852  0.89890289  0.13111307    -0.21700
C3067       C  0.77399014  0.87813375  0.12704584    -0.09800
C3068       C  0.76156624  0.85741713  0.12786076     0.29100
F3069       F  0.77230645  0.83698157  0.12322505    -0.20300
H3070       H  0.72842787  0.84160133  0.13276247     0.17500
H3071       H  0.77118865  0.91510915  0.13050058     0.17500
F3072       F  0.72775131  0.91979402  0.13844487    -0.20300
loop_ 
_geom_bond_atom_site_label_1 
_geom_bond_atom_site_label_2 
_geom_bond_distance 
_geom_bond_site_symmetry_2 
_ccdc_geom_bond_type 
Zr1           O2   2.440       .  S
Zr1           O3   2.456       .  S
Zr1           O4   2.456       .  S
Zr1           O7   2.454       .  S
Zr1           O9   2.383       .  S
Zr1          O10   2.386       .  S
Zr1          O11   2.415       .  S
Zr1          O12   2.402       .  S
O2           H58   0.990       .  S
O2           H66   0.990       .  S
O3           C23   1.287       .  A
O4           C25   1.287       .  A
O5          Zr15   2.395       .  S
O5           C24   1.279       .  A
O6          Zr14   2.431       .  S
O6           C25   1.286       .  A
O7           C24   1.288       .  A
O8          Zr16   2.395       .  S
O8           C23   1.276       .  A
O9          Zr14   2.396       .  S
O9          Zr16   2.382       .  S
O10         Zr15   2.390       .  S
O10         Zr16   2.377       .  S
O10          H45   0.966       .  S
O11         Zr14   2.401       .  S
O11         Zr31   2.387       .  S
O11          H48   0.964       .  S
O12         Zr15   2.386       .  S
O12         Zr31   2.382       .  S
Zr13         O38   2.442       .  S
Zr13         O32   2.458       .  S
Zr13         O40   2.450       .  S
Zr13         O28   2.451       .  S
Zr13         O19   2.398       .  S
Zr13         O20   2.415       .  S
Zr13         O21   2.384       .  S
Zr13         O22   2.384       .  S
Zr14         O33   2.435       .  S
Zr14         O26   2.434       .  S
Zr14         O27   2.428       .  S
Zr14         O20   2.398       .  S
Zr14         O21   2.396       .  S
Zr15         O17   2.437       .  S
Zr15         O39   2.436       .  S
Zr15         O41   2.406       .  S
Zr15         O19   2.379       .  S
Zr15         O22   2.384       .  S
Zr16         O42   2.435       .  S
Zr16         O43   2.435       .  S
Zr16         O18   2.436       .  S
Zr16         O19   2.380       .  S
Zr16         O20   2.385       .  S
O17          H54   0.990       .  S
O18          H49   0.990       .  S
O18          H63   0.990       .  S
O20          H46   0.964       .  S
O21         Zr31   2.384       .  S
O22         Zr31   2.381       .  S
O22          H47   0.966       .  S
C23        C3037   1.487   1_554  S
C24        C3064   1.475       .  S
C25        C3014   1.488       .  S
O26          H62   0.990       .  S
O27          C29   1.285       .  A
O28          C29   1.287       .  A
C29        C3024   1.483       .  S
O30         Zr31   2.438       .  S
O30          H59   0.991       .  S
Zr31         O34   2.438       .  S
Zr31         O35   2.440       .  S
Zr31         O36   2.387       .  S
O32          C37   1.288       .  A
O33          H50   0.990       .  S
O33          H65   0.990       .  S
O34          H51   0.990       .  S
O35          H55   0.990       .  S
O35          H64   0.990       .  S
O36          C37   1.276       .  A
C37        C3047   1.484       .  S
O38          H57   0.990       .  S
O38          H61   0.990       .  S
O39          H53   0.990       .  S
O39          H60   0.990       .  S
O40          C44   1.286       .  A
O41          C44   1.281       .  A
O42          H52   0.990       .  S
O43          H56   0.990       .  S
C44        C3054   1.473       .  S
Zr67         O68   2.442       .  S
Zr67         O69   2.441       .  S
Zr67         O70   2.464       .  S
Zr67         O73   2.464       .  S
Zr67         O75   2.389       .  S
Zr67         O76   2.393       .  S
Zr67         O77   2.413       .  S
Zr67         O78   2.396       .  S
O68         H124   0.990       .  S
O68         H132   0.991       .  S
O69          C89   1.284       .  A
O70          C91   1.289       .  A
O71         Zr81   2.411       .  S
O71          C90   1.282       .  A
O72         Zr80   2.427       .  S
O72          C91   1.285       .  A
O73          C90   1.290       .  A
O74         Zr82   2.410       .  S
O74          C89   1.280       .  A
O75         Zr80   2.401       .  S
O75         Zr82   2.380       .  S
O76         Zr81   2.392       .  S
O76         Zr82   2.382       .  S
O76         H111   0.966       .  S
O77         Zr80   2.403       .  S
O77         Zr97   2.381       .  S
O77         H114   0.964       .  S
O78         Zr81   2.385       .  S
O78         Zr97   2.378       .  S
Zr79        O104   2.443       .  S
Zr79         O98   2.460       .  S
Zr79        O106   2.454       .  S
Zr79         O94   2.458       .  S
Zr79         O85   2.404       .  S
Zr79         O86   2.418       .  S
Zr79         O87   2.385       .  S
Zr79         O88   2.388       .  S
Zr80         O99   2.435       .  S
Zr80         O92   2.435       .  S
Zr80         O93   2.438       .  S
Zr80         O86   2.396       .  S
Zr80         O87   2.392       .  S
Zr81         O83   2.437       .  S
Zr81        O105   2.437       .  S
Zr81        O107   2.416       .  S
Zr81         O85   2.383       .  S
Zr81         O88   2.390       .  S
Zr82        O108   2.436       .  S
Zr82        O109   2.436       .  S
Zr82         O84   2.438       .  S
Zr82         O85   2.391       .  S
Zr82         O86   2.384       .  S
O83         H120   0.990       .  S
O84         H115   0.990       .  S
O84         H129   0.990       .  S
O86         H112   0.964       .  S
O87         Zr97   2.387       .  S
O88         Zr97   2.385       .  S
O88         H113   0.965       .  S
C89        C3044   1.486       .  S
C90        C3004   1.484       .  S
C91        C2974   1.492       .  S
O92         H128   0.990       .  S
O93          C95   1.287       .  A
O94          C95   1.287       .  A
C95        C2984   1.492       .  S
O96         Zr97   2.439       .  S
O96         H125   0.991       .  S
Zr97        O100   2.437       .  S
Zr97        O101   2.439       .  S
Zr97        O102   2.390       .  S
O98         C103   1.289       .  A
O99         H116   0.990       .  S
O99         H131   0.990       .  S
O100        H117   0.990       .  S
O101        H121   0.990       .  S
O101        H130   0.990       .  S
O102        C103   1.275       .  A
C103       C3034   1.486       .  S
O104        H123   0.990       .  S
O104        H127   0.990       .  S
O105        H119   0.990       .  S
O105        H126   0.990       .  S
O106        C110   1.287       .  A
O107        C110   1.282       .  A
O108        H118   0.990       .  S
O109        H122   0.991       .  S
C110       C2994   1.482       .  S
Zr133       O134   2.442   1_554  S
Zr133       O135   2.460   1_554  S
Zr133       O136   2.460   1_554  S
Zr133       O139   2.456       .  S
Zr133       O141   2.382       .  S
Zr133       O142   2.389       .  S
Zr133       O143   2.417       .  S
Zr133       O144   2.403       .  S
O134        H190   0.991       .  S
O134        H198   0.990       .  S
O135        C155   1.288       .  A
O136        C157   1.287   1_556  A
O137       Zr147   2.400       .  S
O137        C156   1.280       .  A
O138       Zr146   2.433       .  S
O138        C157   1.286       .  A
O139        C156   1.289       .  A
O140       Zr148   2.402       .  S
O140        C155   1.277       .  A
O141       Zr146   2.399       .  S
O141       Zr148   2.386   1_554  S
O142       Zr147   2.397       .  S
O142       Zr148   2.373   1_554  S
O142        H177   0.966   1_554  S
O143       Zr146   2.400       .  S
O143       Zr163   2.384       .  S
O143        H180   0.964       .  S
O144       Zr147   2.386       .  S
O144       Zr163   2.381       .  S
Zr145       O170   2.444       .  S
Zr145       O164   2.455       .  S
Zr145       O172   2.457       .  S
Zr145       O160   2.446       .  S
Zr145       O151   2.399       .  S
Zr145       O152   2.416       .  S
Zr145       O153   2.383       .  S
Zr145       O154   2.388       .  S
Zr146       O165   2.434       .  S
Zr146       O158   2.436       .  S
Zr146       O159   2.432       .  S
Zr146       O152   2.400       .  S
Zr146       O153   2.392       .  S
Zr147       O149   2.437       .  S
Zr147       O171   2.438       .  S
Zr147       O173   2.406       .  S
Zr147       O151   2.385       .  S
Zr147       O154   2.391       .  S
Zr148       O174   2.438       .  S
Zr148       O175   2.435   1_556  S
Zr148       O150   2.437       .  S
Zr148       O151   2.383   1_556  S
Zr148       O152   2.383   1_556  S
O149        H186   0.990       .  S
O150        H181   0.990       .  S
O150        H195   0.990       .  S
O152        H178   0.964       .  S
O153       Zr163   2.385       .  S
O154       Zr163   2.382       .  S
O154        H179   0.967       .  S
C155       C2944   1.488       .  S
C156       C2967   1.482       .  S
C157       C2934   1.486   1_554  S
O158        H194   0.990       .  S
O159        C161   1.286       .  A
O160        C161   1.286       .  A
C161       C2924   1.482       .  S
O162       Zr163   2.439       .  S
O162        H191   0.991       .  S
Zr163       O166   2.436       .  S
Zr163       O167   2.440       .  S
Zr163       O168   2.388       .  S
O164        C169   1.287       .  A
O165        H182   0.990       .  S
O165        H197   0.990       .  S
O166        H183   0.990       .  S
O167        H187   0.990       .  S
O167        H196   0.990       .  S
O168        C169   1.275       .  A
C169       C2957   1.483       .  S
O170        H189   0.991       .  S
O170        H193   0.991       .  S
O171        H185   0.990       .  S
O171        H192   0.990   1_554  S
O172        C176   1.287       .  A
O173        C176   1.281       .  A
O174        H184   0.990       .  S
O175        H188   0.990       .  S
C176       C3067   1.479       .  S
Zr199       O200   2.441       .  S
Zr199       O201   2.456       .  S
Zr199       O202   2.463       .  S
Zr199       O205   2.458       .  S
Zr199       O207   2.381       .  S
Zr199       O208   2.390       .  S
Zr199       O209   2.414       .  S
Zr199       O210   2.402       .  S
O200        H256   0.990       .  S
O200        H264   0.990       .  S
O201        C221   1.288       .  A
O202        C223   1.289       .  A
O203       Zr213   2.408       .  S
O203        C222   1.280       .  A
O204       Zr212   2.413       .  S
O204        C223   1.282       .  A
O205        C222   1.289       .  A
O206       Zr214   2.386       .  S
O206        C221   1.274       .  A
O207       Zr212   2.391       .  S
O207       Zr214   2.380       .  S
O208       Zr213   2.392       .  S
O208       Zr214   2.379       .  S
O208        H243   0.966       .  S
O209       Zr212   2.399       .  S
O209       Zr229   2.385       .  S
O209        H246   0.964       .  S
O210       Zr213   2.386       .  S
O210       Zr229   2.384       .  S
Zr211       O236   2.441       .  S
Zr211       O230   2.455       .  S
Zr211       O238   2.459       .  S
Zr211       O226   2.449       .  S
Zr211       O217   2.403       .  S
Zr211       O218   2.415       .  S
Zr211       O219   2.381       .  S
Zr211       O220   2.389       .  S
Zr212       O231   2.435       .  S
Zr212       O224   2.436       .  S
Zr212       O225   2.415       .  S
Zr212       O218   2.395       .  S
Zr212       O219   2.389       .  S
Zr213       O215   2.436       .  S
Zr213       O237   2.440       .  S
Zr213       O239   2.404       .  S
Zr213       O217   2.388       .  S
Zr213       O220   2.394       .  S
Zr214       O240   2.436       .  S
Zr214       O241   2.436       .  S
Zr214       O216   2.439       .  S
Zr214       O217   2.386       .  S
Zr214       O218   2.384       .  S
O215        H252   0.990       .  S
O216        H247   0.990       .  S
O216        H261   0.990       .  S
O218        H244   0.965       .  S
O219       Zr229   2.380       .  S
O220       Zr229   2.383       .  S
O220        H245   0.966       .  S
C221       C2954   1.484       .  S
C222       C2914   1.486       .  S
C223       C2904   1.484       .  S
O224        H260   0.990       .  S
O225        C227   1.282       .  A
O226        C227   1.287       .  A
C227       C2894   1.481       .  S
O228       Zr229   2.440       .  S
O228        H257   0.990       .  S
Zr229       O232   2.438       .  S
Zr229       O233   2.439       .  S
Zr229       O234   2.403       .  S
O230        C235   1.288       .  A
O231        H248   0.990       .  S
O231        H263   0.990       .  S
O232        H249   0.990       .  S
O233        H253   0.990       .  S
O233        H262   0.990       .  S
O234        C235   1.278       .  A
C235       C2947   1.487       .  S
O236        H255   0.990       .  S
O236        H259   0.991       .  S
O237        H251   0.990       .  S
O237        H258   0.990       .  S
O238        C242   1.287       .  A
O239        C242   1.280       .  A
O240        H250   0.990       .  S
O241        H254   0.990       .  S
C242       C3007   1.482       .  S
Zr265       O266   2.442       .  S
Zr265       O267   2.460       .  S
Zr265       O268   2.454       .  S
Zr265       O271   2.465       .  S
Zr265       O273   2.386       .  S
Zr265       O274   2.388       .  S
Zr265       O275   2.420       .  S
Zr265       O276   2.398       .  S
O266        H322   0.990       .  S
O266        H330   0.991       .  S
O267        C287   1.289       .  A
O268        C289   1.287       .  A
O269       Zr279   2.416       .  S
O269        C288   1.282       .  A
O270       Zr278   2.427       .  S
O270        C289   1.285       .  A
O271        C288   1.290       .  A
O272       Zr280   2.386       .  S
O272        C287   1.274       .  A
O273       Zr278   2.401       .  S
O273       Zr280   2.382       .  S
O274       Zr279   2.390       .  S
O274       Zr280   2.379       .  S
O274        H309   0.966       .  S
O275       Zr278   2.403       .  S
O275       Zr295   2.390       .  S
O275        H312   0.965       .  S
O276       Zr279   2.382       .  S
O276       Zr295   2.381       .  S
Zr277       O302   2.443       .  S
Zr277       O296   2.450       .  S
Zr277       O304   2.454       .  S
Zr277       O292   2.439       .  S
Zr277       O283   2.404       .  S
Zr277       O284   2.411       .  S
Zr277       O285   2.385       .  S
Zr277       O286   2.384       .  S
Zr278       O297   2.436       .  S
Zr278       O290   2.434       .  S
Zr278       O291   2.447       .  S
Zr278       O284   2.392       .  S
Zr278       O285   2.391       .  S
Zr279       O281   2.436       .  S
Zr279       O303   2.438       .  S
Zr279       O305   2.412       .  S
Zr279       O283   2.391       .  S
Zr279       O286   2.394       .  S
Zr280       O306   2.435       .  S
Zr280       O307   2.436       .  S
Zr280       O282   2.437       .  S
Zr280       O283   2.388       .  S
Zr280       O284   2.367       .  S
O281        H318   0.990       .  S
O282        H313   0.990       .  S
O282        H327   0.990       .  S
O284        H310   0.963       .  S
O285       Zr295   2.384       .  S
O286       Zr295   2.382       .  S
O286        H311   0.966       .  S
C287       C2877   1.486       .  S
C288       C2884   1.485       .  S
C289       C2854   1.485       .  S
O290        H326   0.990       .  S
O291        C293   1.288       .  A
O292        C293   1.285       .  A
C293       C2844   1.484       .  S
O294       Zr295   2.438       .  S
O294        H323   0.990       .  S
Zr295       O298   2.437       .  S
Zr295       O299   2.439       .  S
Zr295       O300   2.404       .  S
O296        C301   1.286       .  A
O297        H314   0.990       .  S
O297        H329   0.990       .  S
O298        H315   0.990       .  S
O299        H319   0.990       .  S
O299        H328   0.990       .  S
O300        C301   1.279       .  A
C301       C2867   1.488       .  S
O302        H321   0.990       .  S
O302        H325   0.991       .  S
O303        H317   0.990       .  S
O303        H324   0.990       .  S
O304        C308   1.286       .  A
O305        C308   1.281       .  A
O306        H316   0.990       .  S
O307        H320   0.990       .  S
C308       C2917   1.476       .  S
Zr331       O332   2.442       .  S
Zr331       O333   2.457       .  S
Zr331       O334   2.462       .  S
Zr331       O337   2.452       .  S
Zr331       O339   2.385       .  S
Zr331       O340   2.388       .  S
Zr331       O341   2.413   1_554  S
Zr331       O342   2.401   1_554  S
O332        H388   0.990       .  S
O332        H396   0.990       .  S
O333        C353   1.288       .  A
O334        C355   1.288   1_554  A
O335       Zr345   2.411       .  S
O335        C354   1.281       .  A
O336       Zr344   2.427       .  S
O336        C355   1.285       .  A
O337        C354   1.287   1_554  A
O338       Zr346   2.386       .  S
O338        C353   1.274       .  A
O339       Zr344   2.395   1_554  S
O339       Zr346   2.388       .  S
O340       Zr345   2.389   1_554  S
O340       Zr346   2.378       .  S
O340        H375   0.966       .  S
O341       Zr344   2.396       .  S
O341       Zr361   2.385       .  S
O341        H378   0.964       .  S
O342       Zr345   2.381       .  S
O342       Zr361   2.387       .  S
Zr343       O368   2.443       .  S
Zr343       O362   2.454       .  S
Zr343       O370   2.456       .  S
Zr343       O358   2.445       .  S
Zr343       O349   2.400       .  S
Zr343       O350   2.410       .  S
Zr343       O351   2.382       .  S
Zr343       O352   2.384       .  S
Zr344       O363   2.435       .  S
Zr344       O356   2.436       .  S
Zr344       O357   2.423       .  S
Zr344       O350   2.398       .  S
Zr344       O351   2.394       .  S
Zr345       O347   2.434       .  S
Zr345       O369   2.437       .  S
Zr345       O371   2.408       .  S
Zr345       O349   2.389       .  S
Zr345       O352   2.393       .  S
Zr346       O372   2.437       .  S
Zr346       O373   2.436       .  S
Zr346       O348   2.437       .  S
Zr346       O349   2.378   1_554  S
Zr346       O350   2.374   1_554  S
O347        H384   0.990       .  S
O348        H379   0.990       .  S
O348        H393   0.990       .  S
O350        H376   0.964       .  S
O351       Zr361   2.379       .  S
O352       Zr361   2.380       .  S
O352        H377   0.966       .  S
C353       C2874   1.485       .  S
C354       C2964   1.476       .  S
C355       C2814   1.491   1_556  S
O356        H392   0.990       .  S
O357        C359   1.283       .  A
O358        C359   1.287       .  A
C359       C2827   1.482       .  S
O360       Zr361   2.438       .  S
O360        H389   0.990       .  S
Zr361       O364   2.437       .  S
Zr361       O365   2.440       .  S
Zr361       O366   2.408       .  S
O362        C367   1.288       .  A
O363        H380   0.990       .  S
O363        H395   0.990       .  S
O364        H381   0.990       .  S
O365        H385   0.990       .  S
O365        H394   0.990       .  S
O366        C367   1.280       .  A
C367       C2864   1.490       .  S
O368        H387   0.990       .  S
O368        H391   0.991       .  S
O369        H383   0.990       .  S
O369        H390   0.990       .  S
O370        C374   1.287       .  A
O371        C374   1.281       .  A
O372        H382   0.990       .  S
O373        H386   0.990   1_554  S
C374       C2834   1.481       .  S
Zr397       O398   2.442       .  S
Zr397       O399   2.447       .  S
Zr397       O400   2.456       .  S
Zr397       O403   2.467       .  S
Zr397       O405   2.387       .  S
Zr397       O406   2.388       .  S
Zr397       O407   2.420       .  S
Zr397       O408   2.395       .  S
O398        H454   0.990       .  S
O398        H462   0.990       .  S
O399        C419   1.286       .  A
O400        C421   1.287       .  A
O401       Zr411   2.415       .  S
O401        C420   1.283       .  A
O402       Zr410   2.432       .  S
O402        C421   1.285       .  A
O403        C420   1.291       .  A
O404       Zr412   2.386       .  S
O404        C419   1.275       .  A
O405       Zr410   2.393       .  S
O405       Zr412   2.388       .  S
O406       Zr411   2.388       .  S
O406       Zr412   2.382       .  S
O406        H441   0.966       .  S
O407       Zr410   2.400       .  S
O407       Zr427   2.397       .  S
O407        H444   0.965       .  S
O408       Zr411   2.376       .  S
O408       Zr427   2.380       .  S
Zr409       O434   2.440       .  S
Zr409       O428   2.457       .  S
Zr409       O436   2.460       .  S
Zr409       O424   2.458       .  S
Zr409       O415   2.394       .  S
Zr409       O416   2.418       .  S
Zr409       O417   2.384       .  S
Zr409       O418   2.391       .  S
Zr410       O429   2.435       .  S
Zr410       O422   2.437       .  S
Zr410       O423   2.425       .  S
Zr410       O416   2.403       .  S
Zr410       O417   2.398       .  S
Zr411       O413   2.435       .  S
Zr411       O435   2.442       .  S
Zr411       O437   2.398       .  S
Zr411       O415   2.377       .  S
Zr411       O418   2.400       .  S
Zr412       O438   2.437       .  S
Zr412       O439   2.437       .  S
Zr412       O414   2.437       .  S
Zr412       O415   2.371       .  S
Zr412       O416   2.378       .  S
O413        H450   0.990       .  S
O414        H445   0.990       .  S
O414        H459   0.990       .  S
O416        H442   0.964       .  S
O417       Zr427   2.383       .  S
O418       Zr427   2.380       .  S
O418        H443   0.967       .  S
C419       C2797   1.479       .  S
C420       C2887   1.488       .  S
C421       C2784   1.487       .  S
O422        H458   0.990       .  S
O423        C425   1.285       .  A
O424        C425   1.288       .  A
C425       C2774   1.484       .  S
O426       Zr427   2.438       .  S
O426        H455   0.990       .  S
Zr427       O430   2.437       .  S
Zr427       O431   2.440       .  S
Zr427       O432   2.408       .  S
O428        C433   1.287       .  A
O429        H446   0.990       .  S
O429        H461   0.990       .  S
O430        H447   0.990       .  S
O431        H451   0.990       .  S
O431        H460   0.990       .  S
O432        C433   1.279       .  A
C433       C2807   1.492       .  S
O434        H453   0.990       .  S
O434        H457   0.990       .  S
O435        H449   0.990       .  S
O435        H456   0.990       .  S
O436        C440   1.288       .  A
O437        C440   1.280       .  A
O438        H448   0.991       .  S
O439        H452   0.991       .  S
C440       C3057   1.483       .  S
Zr463       O464   2.443       .  S
Zr463       O465   2.471       .  S
Zr463       O466   2.451       .  S
Zr463       O469   2.459       .  S
Zr463       O471   2.383       .  S
Zr463       O472   2.385       .  S
Zr463       O473   2.419       .  S
Zr463       O474   2.398       .  S
O464        H520   0.990       .  S
O464        H528   0.991       .  S
O465        C485   1.291       .  A
O466        C487   1.286       .  A
O467       Zr477   2.404       .  S
O467        C486   1.281       .  A
O468       Zr476   2.425       .  S
O468        C487   1.284       .  A
O469        C486   1.288       .  A
O470       Zr478   2.395       .  S
O470        C485   1.277       .  A
O471       Zr476   2.393       .  S
O471       Zr478   2.383       .  S
O472       Zr477   2.393       .  S
O472       Zr478   2.381       .  S
O472        H507   0.966       .  S
O473       Zr476   2.402       .  S
O473       Zr493   2.389       .  S
O473        H510   0.964       .  S
O474       Zr477   2.379       .  S
O474       Zr493   2.380       .  S
Zr475       O500   2.443       .  S
Zr475       O494   2.449       .  S
Zr475       O502   2.471       .  S
Zr475       O490   2.454       .  S
Zr475       O481   2.396       .  S
Zr475       O482   2.414       .  S
Zr475       O483   2.387       .  S
Zr475       O484   2.392       .  S
Zr476       O495   2.435       .  S
Zr476       O488   2.437       .  S
Zr476       O489   2.428       .  S
Zr476       O482   2.398       .  S
Zr476       O483   2.394       .  S
Zr477       O479   2.437       .  S
Zr477       O501   2.436       .  S
Zr477       O503   2.403       .  S
Zr477       O481   2.386       .  S
Zr477       O484   2.390       .  S
Zr478       O504   2.436       .  S
Zr478       O505   2.435       .  S
Zr478       O480   2.437       .  S
Zr478       O481   2.377       .  S
Zr478       O482   2.387       .  S
O479        H516   0.990       .  S
O480        H511   0.990       .  S
O480        H525   0.990       .  S
O482        H508   0.965       .  S
O483       Zr493   2.383       .  S
O484       Zr493   2.380       .  S
O484        H509   0.966       .  S
C485       C2804   1.493   1_556  S
C486       C2837   1.478       .  S
C487       C2767   1.482       .  S
O488        H524   0.990       .  S
O489        C491   1.285       .  A
O490        C491   1.288       .  A
C491       C2757   1.487       .  S
O492       Zr493   2.440       .  S
O492        H521   0.991       .  S
Zr493       O496   2.437       .  S
Zr493       O497   2.440       .  S
Zr493       O498   2.389       .  S
O494        C499   1.286       .  A
O495        H512   0.990       .  S
O495        H527   0.990       .  S
O496        H513   0.990       .  S
O497        H517   0.990       .  S
O497        H526   0.990       .  S
O498        C499   1.275       .  A
C499       C2794   1.481       .  S
O500        H519   0.990       .  S
O500        H523   0.991       .  S
O501        H515   0.989       .  S
O501        H522   0.990       .  S
O502        C506   1.289       .  A
O503        C506   1.280       .  A
O504        H514   0.990       .  S
O505        H518   0.990       .  S
C506       C2997   1.487       .  S
Zr529       O530   2.442       .  S
Zr529       O531   2.458       .  S
Zr529       O532   2.478       .  S
Zr529       O535   2.456       .  S
Zr529       O537   2.384       .  S
Zr529       O538   2.395       .  S
Zr529       O539   2.416       .  S
Zr529       O540   2.409       .  S
O530        H586   0.990       .  S
O530        H594   0.990       .  S
O531        C551   1.288       .  A
O532        C553   1.291       .  A
O533       Zr543   2.424       .  S
O533        C552   1.284       .  A
O534       Zr542   2.410       .  S
O534        C553   1.281       .  A
O535        C552   1.289       .  A
O536       Zr544   2.390       .  S
O536        C551   1.275       .  A
O537       Zr542   2.393       .  S
O537       Zr544   2.388       .  S
O538       Zr543   2.394       .  S
O538       Zr544   2.376       .  S
O538        H573   0.966       .  S
O539       Zr542   2.403       .  S
O539       Zr559   2.380   1_554  S
O539        H576   0.964       .  S
O540       Zr543   2.388       .  S
O540       Zr559   2.387   1_554  S
Zr541       O566   2.441   1_554  S
Zr541       O560   2.456   1_554  S
Zr541       O568   2.444   1_554  S
Zr541       O556   2.474   1_554  S
Zr541       O547   2.405       .  S
Zr541       O548   2.413       .  S
Zr541       O549   2.381   1_554  S
Zr541       O550   2.393   1_554  S
Zr542       O561   2.437       .  S
Zr542       O554   2.435       .  S
Zr542       O555   2.416       .  S
Zr542       O548   2.398       .  S
Zr542       O549   2.395   1_554  S
Zr543       O545   2.435       .  S
Zr543       O567   2.439       .  S
Zr543       O569   2.422       .  S
Zr543       O547   2.385       .  S
Zr543       O550   2.395   1_554  S
Zr544       O570   2.438       .  S
Zr544       O571   2.434       .  S
Zr544       O546   2.441       .  S
Zr544       O547   2.382       .  S
Zr544       O548   2.380       .  S
O545        H582   0.990       .  S
O546        H577   0.990       .  S
O546        H591   0.989       .  S
O548        H574   0.963       .  S
O549       Zr559   2.386       .  S
O550       Zr559   2.374       .  S
O550        H575   0.966       .  S
C551       C2724   1.484       .  S
C552       C2704   1.486       .  S
C553       C2747   1.488       .  S
O554        H590   0.990       .  S
O555        C557   1.282       .  A
O556        C557   1.291   1_556  A
C557       C2734   1.482       .  S
O558       Zr559   2.438   1_554  S
O558        H587   0.990   1_554  S
Zr559       O562   2.437       .  S
Zr559       O563   2.440       .  S
Zr559       O564   2.395       .  S
O560        C565   1.287       .  A
O561        H578   0.991       .  S
O561        H593   0.990       .  S
O562        H579   0.990       .  S
O563        H583   0.990       .  S
O563        H592   0.990       .  S
O564        C565   1.277       .  A
C565       C2714   1.487       .  S
O566        H585   0.990       .  S
O566        H589   0.990       .  S
O567        H581   0.990       .  S
O567        H588   0.990       .  S
O568        C572   1.286   1_556  A
O569        C572   1.283       .  A
O570        H580   0.990       .  S
O571        H584   0.990       .  S
C572       C2937   1.485   1_554  S
Zr595       O596   2.441       .  S
Zr595       O597   2.462       .  S
Zr595       O598   2.466       .  S
Zr595       O601   2.455       .  S
Zr595       O603   2.381       .  S
Zr595       O604   2.389       .  S
Zr595       O605   2.413       .  S
Zr595       O606   2.408       .  S
O596        H652   0.990       .  S
O596        H660   0.991       .  S
O597        C617   1.289       .  A
O598        C619   1.290       .  A
O599       Zr609   2.415       .  S
O599        C618   1.282       .  A
O600       Zr608   2.426       .  S
O600        C619   1.283       .  A
O601        C618   1.288       .  A
O602       Zr610   2.396       .  S
O602        C617   1.277       .  A
O603       Zr608   2.394       .  S
O603       Zr610   2.387       .  S
O604       Zr609   2.391       .  S
O604       Zr610   2.376       .  S
O604        H639   0.966       .  S
O605       Zr608   2.395       .  S
O605       Zr625   2.376       .  S
O605        H642   0.964       .  S
O606       Zr609   2.388       .  S
O606       Zr625   2.392       .  S
Zr607       O632   2.441       .  S
Zr607       O626   2.465       .  S
Zr607       O634   2.461       .  S
Zr607       O622   2.475       .  S
Zr607       O613   2.410       .  S
Zr607       O614   2.415       .  S
Zr607       O615   2.386       .  S
Zr607       O616   2.386       .  S
Zr608       O627   2.436       .  S
Zr608       O620   2.434       .  S
Zr608       O621   2.416       .  S
Zr608       O614   2.399       .  S
Zr608       O615   2.398       .  S
Zr609       O611   2.435       .  S
Zr609       O633   2.436       .  S
Zr609       O635   2.417       .  S
Zr609       O613   2.387       .  S
Zr609       O616   2.391       .  S
Zr610       O636   2.437       .  S
Zr610       O637   2.436       .  S
Zr610       O612   2.436       .  S
Zr610       O613   2.387       .  S
Zr610       O614   2.371       .  S
O611        H648   0.990       .  S
O612        H643   0.990       .  S
O612        H657   0.990       .  S
O614        H640   0.964       .  S
O615       Zr625   2.384       .  S
O616       Zr625   2.375       .  S
O616        H641   0.966       .  S
C617       C2727   1.486       .  S
C618       C2907   1.485       .  S
C619       C2684   1.484       .  S
O620        H656   0.990       .  S
O621        C623   1.283       .  A
O622        C623   1.291       .  A
C623       C2694   1.482       .  S
O624       Zr625   2.439       .  S
O624        H653   0.990       .  S
Zr625       O628   2.439       .  S
Zr625       O629   2.439       .  S
Zr625       O630   2.394       .  S
O626        C631   1.289       .  A
O627        H644   0.990       .  S
O627        H659   0.990       .  S
O628        H645   0.990       .  S
O629        H649   0.990       .  S
O629        H658   0.990       .  S
O630        C631   1.277       .  A
C631       C2717   1.488       .  S
O632        H651   0.990       .  S
O632        H655   0.990       .  S
O633        H647   0.990       .  S
O633        H654   0.990       .  S
O634        C638   1.290       .  A
O635        C638   1.282       .  A
O636        H646   0.990       .  S
O637        H650   0.991       .  S
C638       C2674   1.492       .  S
Zr661       O662   2.441       .  S
Zr661       O663   2.459       .  S
Zr661       O664   2.476       .  S
Zr661       O667   2.460       .  S
Zr661       O669   2.385       .  S
Zr661       O670   2.392       .  S
Zr661       O671   2.415       .  S
Zr661       O672   2.407       .  S
O662        H718   0.990       .  S
O662        H726   0.990       .  S
O663        C683   1.288       .  A
O664        C685   1.291       .  A
O665       Zr675   2.407       .  S
O665        C684   1.281       .  A
O666       Zr674   2.419       .  S
O666        C685   1.283       .  A
O667        C684   1.290       .  A
O668       Zr676   2.403       .  S
O668        C683   1.278       .  A
O669       Zr674   2.397       .  S
O669       Zr676   2.387       .  S
O670       Zr675   2.394       .  S
O670       Zr676   2.372       .  S
O670        H705   0.965       .  S
O671       Zr674   2.398       .  S
O671       Zr691   2.375       .  S
O671        H708   0.964       .  S
O672       Zr675   2.386       .  S
O672       Zr691   2.383       .  S
Zr673       O698   2.442       .  S
Zr673       O692   2.458       .  S
Zr673       O700   2.461       .  S
Zr673       O688   2.472       .  S
Zr673       O679   2.411       .  S
Zr673       O680   2.415       .  S
Zr673       O681   2.383       .  S
Zr673       O682   2.389       .  S
Zr674       O693   2.439       .  S
Zr674       O686   2.433       .  S
Zr674       O687   2.424       .  S
Zr674       O680   2.397       .  S
Zr674       O681   2.392       .  S
Zr675       O677   2.435       .  S
Zr675       O699   2.437       .  S
Zr675       O701   2.410       .  S
Zr675       O679   2.389       .  S
Zr675       O682   2.387       .  S
Zr676       O702   2.434       .  S
Zr676       O703   2.435       .  S
Zr676       O678   2.438       .  S
Zr676       O679   2.390       .  S
Zr676       O680   2.376       .  S
O677        H714   0.990       .  S
O678        H709   0.990       .  S
O678        H723   0.990       .  S
O680        H706   0.964       .  S
O681       Zr691   2.389       .  S
O682       Zr691   2.377       .  S
O682        H707   0.966       .  S
C683       C2654   1.490       .  S
C684       C3027   1.485       .  S
C685       C2667   1.488       .  S
O686        H722   0.990       .  S
O687        C689   1.283       .  A
O688        C689   1.291       .  A
C689       C2744   1.485       .  S
O690       Zr691   2.439       .  S
O690        H719   0.990       .  S
Zr691       O694   2.436       .  S
Zr691       O695   2.442       .  S
Zr691       O696   2.382       .  S
O692        C697   1.289       .  A
O693        H710   0.990       .  S
O693        H725   0.990       .  S
O694        H711   0.990       .  S
O695        H715   0.990       .  S
O695        H724   0.990       .  S
O696        C697   1.275       .  A
C697       C2647   1.481   1_554  S
O698        H717   0.991       .  S
O698        H721   0.990       .  S
O699        H713   0.990       .  S
O699        H720   0.990       .  S
O700        C704   1.289       .  A
O701        C704   1.281       .  A
O702        H712   0.990       .  S
O703        H716   0.990       .  S
C704       C2634   1.486       .  S
Zr727       O728   2.442       .  S
Zr727       O729   2.467       .  S
Zr727       O730   2.490       .  S
Zr727       O733   2.465       .  S
Zr727       O735   2.386       .  S
Zr727       O736   2.395       .  S
Zr727       O737   2.416       .  S
Zr727       O738   2.415       .  S
O728        H784   0.990       .  S
O728        H792   0.990       .  S
O729        C749   1.290       .  A
O730        C751   1.294       .  A
O731       Zr741   2.409       .  S
O731        C750   1.281       .  A
O732       Zr740   2.420       .  S
O732        C751   1.283       .  A
O733        C750   1.291       .  A
O734       Zr742   2.386       .  S
O734        C749   1.275       .  A
O735       Zr740   2.394       .  S
O735       Zr742   2.389       .  S
O736       Zr741   2.391       .  S
O736       Zr742   2.375       .  S
O736        H771   0.966       .  S
O737       Zr740   2.397       .  S
O737       Zr757   2.376       .  S
O737        H774   0.963       .  S
O738       Zr741   2.388       .  S
O738       Zr757   2.393       .  S
Zr739       O764   2.441       .  S
Zr739       O758   2.459       .  S
Zr739       O766   2.454       .  S
Zr739       O754   2.466       .  S
Zr739       O745   2.410       .  S
Zr739       O746   2.413       .  S
Zr739       O747   2.383       .  S
Zr739       O748   2.386       .  S
Zr740       O759   2.435       .  S
Zr740       O752   2.435       .  S
Zr740       O753   2.418       .  S
Zr740       O746   2.397       .  S
Zr740       O747   2.397       .  S
Zr741       O743   2.435       .  S
Zr741       O765   2.439       .  S
Zr741       O767   2.418       .  S
Zr741       O745   2.386       .  S
Zr741       O748   2.389       .  S
Zr742       O768   2.436       .  S
Zr742       O769   2.436       .  S
Zr742       O744   2.436       .  S
Zr742       O745   2.389       .  S
Zr742       O746   2.369       .  S
O743        H780   0.990       .  S
O744        H775   0.990       .  S
O744        H789   0.990       .  S
O746        H772   0.964       .  S
O747       Zr757   2.383       .  S
O748       Zr757   2.374       .  S
O748        H773   0.966       .  S
C749       C2644   1.487       .  S
C750       C2987   1.490       .  S
C751       C2624   1.498       .  S
O752        H788   0.990       .  S
O753        C755   1.283       .  A
O754        C755   1.290       .  A
C755       C2697   1.487       .  S
O756       Zr757   2.438       .  S
O756        H785   0.990       .  S
Zr757       O760   2.436       .  S
Zr757       O761   2.440       .  S
Zr757       O762   2.401       .  S
O758        C763   1.288       .  A
O759        H776   0.990       .  S
O759        H791   0.990       .  S
O760        H777   0.990       .  S
O761        H781   0.990       .  S
O761        H790   0.990       .  S
O762        C763   1.278       .  A
C763       C2657   1.489       .  S
O764        H783   0.991       .  S
O764        H787   0.990       .  S
O765        H779   0.990       .  S
O765        H786   0.990       .  S
O766        C770   1.288       .  A
O767        C770   1.282       .  A
O768        H778   0.989       .  S
O769        H782   0.990       .  S
C770       C2614   1.486       .  S
Zr793       O794   2.442       .  S
Zr793       O795   2.452       .  S
Zr793       O796   2.464       .  S
Zr793       O799   2.449       .  S
Zr793       O801   2.383       .  S
Zr793       O802   2.386       .  S
Zr793       O803   2.412       .  S
Zr793       O804   2.409       .  S
O794        H850   0.990       .  S
O794        H858   0.990       .  S
O795        C815   1.286       .  A
O796        C817   1.289       .  A
O797       Zr807   2.416       .  S
O797        C816   1.283       .  A
O798       Zr806   2.412       .  S
O798        C817   1.281       .  A
O799        C816   1.287       .  A
O800       Zr808   2.388       .  S
O800        C815   1.275       .  A
O801       Zr806   2.399       .  S
O801       Zr808   2.386       .  S
O802       Zr807   2.391       .  S
O802       Zr808   2.370       .  S
O802        H837   0.965       .  S
O803       Zr806   2.398       .  S
O803       Zr823   2.374       .  S
O803        H840   0.964       .  S
O804       Zr807   2.391       .  S
O804       Zr823   2.389       .  S
Zr805       O830   2.441       .  S
Zr805       O824   2.459       .  S
Zr805       O832   2.463       .  S
Zr805       O820   2.488       .  S
Zr805       O811   2.409       .  S
Zr805       O812   2.414       .  S
Zr805       O813   2.387       .  S
Zr805       O814   2.396       .  S
Zr806       O825   2.435       .  S
Zr806       O818   2.434       .  S
Zr806       O819   2.415       .  S
Zr806       O812   2.400       .  S
Zr806       O813   2.393       .  S
Zr807       O809   2.436       .  S
Zr807       O831   2.439       .  S
Zr807       O833   2.410       .  S
Zr807       O811   2.388       .  S
Zr807       O814   2.389       .  S
Zr808       O834   2.436       .  S
Zr808       O835   2.435       .  S
Zr808       O810   2.435       .  S
Zr808       O811   2.385       .  S
Zr808       O812   2.376       .  S
O809        H846   0.990       .  S
O810        H841   0.990       .  S
O810        H855   0.990       .  S
O812        H838   0.963       .  S
O813       Zr823   2.390       .  S
O814       Zr823   2.379       .  S
O814        H839   0.966       .  S
C815       C2587   1.485       .  S
C816       C2577   1.485       .  S
C817       C2607   1.485       .  S
O818        H854   0.990       .  S
O819        C821   1.282       .  A
O820        C821   1.294       .  A
C821       C2664   1.493       .  S
O822       Zr823   2.441       .  S
O822        H851   0.991       .  S
Zr823       O826   2.438       .  S
Zr823       O827   2.439       .  S
Zr823       O828   2.388       .  S
O824        C829   1.288       .  A
O825        H842   0.990       .  S
O825        H857   0.990       .  S
O826        H843   0.990       .  S
O827        H847   0.990       .  S
O827        H856   0.990       .  S
O828        C829   1.275       .  A
C829       C2594   1.487       .  S
O830        H849   0.990       .  S
O830        H853   0.990       .  S
O831        H845   0.990       .  S
O831        H852   0.989       .  S
O832        C836   1.290       .  A
O833        C836   1.281       .  A
O834        H844   0.990       .  S
O835        H848   0.990       .  S
C836       C2777   1.488       .  S
Zr859       O860   2.441       .  S
Zr859       O861   2.449       .  S
Zr859       O862   2.463       .  S
Zr859       O865   2.452       .  S
Zr859       O867   2.387       .  S
Zr859       O868   2.393       .  S
Zr859       O869   2.414       .  S
Zr859       O870   2.407       .  S
O860        H916   0.990       .  S
O860        H924   0.991       .  S
O861        C881   1.286       .  A
O862        C883   1.288       .  A
O863       Zr873   2.416       .  S
O863        C882   1.282       .  A
O864       Zr872   2.419       .  S
O864        C883   1.282       .  A
O865        C882   1.287       .  A
O866       Zr874   2.402       .  S
O866        C881   1.278       .  A
O867       Zr872   2.398       .  S
O867       Zr874   2.389       .  S
O868       Zr873   2.389       .  S
O868       Zr874   2.376       .  S
O868        H903   0.966       .  S
O869       Zr872   2.399       .  S
O869       Zr889   2.387       .  S
O869        H906   0.965       .  S
O870       Zr873   2.389       .  S
O870       Zr889   2.386       .  S
Zr871       O896   2.440       .  S
Zr871       O890   2.459       .  S
Zr871       O898   2.437       .  S
Zr871       O886   2.470       .  S
Zr871       O877   2.413       .  S
Zr871       O878   2.415       .  S
Zr871       O879   2.380       .  S
Zr871       O880   2.389       .  S
Zr872       O891   2.434       .  S
Zr872       O884   2.435       .  S
Zr872       O885   2.424       .  S
Zr872       O878   2.397       .  S
Zr872       O879   2.398       .  S
Zr873       O875   2.436       .  S
Zr873       O897   2.439       .  S
Zr873       O899   2.414       .  S
Zr873       O877   2.387       .  S
Zr873       O880   2.398       .  S
Zr874       O900   2.435       .  S
Zr874       O901   2.436       .  S
Zr874       O876   2.442       .  S
Zr874       O877   2.394       .  S
Zr874       O878   2.375       .  S
O875        H912   0.991       .  S
O876        H907   0.990       .  S
O876        H921   0.990       .  S
O878        H904   0.962       .  S
O879       Zr889   2.391       .  S
O880       Zr889   2.373       .  S
O880        H905   0.966       .  S
C881       C2584   1.487       .  S
C882       C2754   1.485       .  S
C883       C2627   1.481       .  S
O884        H920   0.990       .  S
O885        C887   1.283       .  A
O886        C887   1.290       .  A
C887       C2564   1.484       .  S
O888       Zr889   2.439       .  S
O888        H917   0.990       .  S
Zr889       O892   2.436       .  S
Zr889       O893   2.445       .  S
Zr889       O894   2.398       .  S
O890        C895   1.288       .  A
O891        H908   0.990       .  S
O891        H923   0.990       .  S
O892        H909   0.990       .  S
O893        H913   0.990       .  S
O893        H922   0.990       .  S
O894        C895   1.276       .  A
C895       C2597   1.488   1_556  S
O896        H915   0.990       .  S
O896        H919   0.990       .  S
O897        H911   0.990       .  S
O897        H918   0.990       .  S
O898        C902   1.285       .  A
O899        C902   1.281       .  A
O900        H910   0.990       .  S
O901        H914   0.990       .  S
C902       C2554   1.478       .  S
Zr925       O926   2.441       .  S
Zr925       O927   2.459       .  S
Zr925       O928   2.472       .  S
Zr925       O931   2.449       .  S
Zr925       O933   2.380       .  S
Zr925       O934   2.389       .  S
Zr925       O935   2.412       .  S
Zr925       O936   2.409       .  S
O926        H982   0.990       .  S
O926        H990   0.990       .  S
O927        C947   1.288       .  A
O928        C949   1.290       .  A
O929       Zr939   2.411       .  S
O929        C948   1.282       .  A
O930       Zr938   2.418       .  S
O930        C949   1.282       .  A
O931        C948   1.288       .  A
O932       Zr940   2.382       .  S
O932        C947   1.274       .  A
O933       Zr938   2.394       .  S
O933       Zr940   2.386       .  S
O934       Zr939   2.388       .  S
O934       Zr940   2.369       .  S
O934        H969   0.966       .  S
O935       Zr938   2.397       .  S
O935       Zr955   2.373       .  S
O935        H972   0.964       .  S
O936       Zr939   2.390       .  S
O936       Zr955   2.382       .  S
Zr937       O962   2.442       .  S
Zr937       O956   2.469       .  S
Zr937       O964   2.463       .  S
Zr937       O952   2.481       .  S
Zr937       O943   2.412       .  S
Zr937       O944   2.415       .  S
Zr937       O945   2.384       .  S
Zr937       O946   2.390       .  S
Zr938       O957   2.435       .  S
Zr938       O950   2.436       .  S
Zr938       O951   2.415       .  S
Zr938       O944   2.402       .  S
Zr938       O945   2.394       .  S
Zr939       O941   2.435       .  S
Zr939       O963   2.436       .  S
Zr939       O965   2.410       .  S
Zr939       O943   2.388       .  S
Zr939       O946   2.391       .  S
Zr940       O966   2.437       .  S
Zr940       O967   2.435       .  S
Zr940       O942   2.438       .  S
Zr940       O943   2.388       .  S
Zr940       O944   2.371       .  S
O941        H978   0.990       .  S
O942        H973   0.990       .  S
O942        H987   0.990       .  S
O944        H970   0.963       .  S
O945       Zr955   2.388       .  S
O946       Zr955   2.373       .  S
O946        H971   0.966       .  S
C947       C2544   1.485       .  S
C948       C2524   1.479       .  S
C949       C2604   1.482       .  S
O950        H986   0.990       .  S
O951        C953   1.283       .  A
O952        C953   1.293       .  A
C953       C2687   1.491       .  S
O954       Zr955   2.438       .  S
O954        H983   0.990       .  S
Zr955       O958   2.437       .  S
Zr955       O959   2.440       .  S
Zr955       O960   2.381       .  S
O956        C961   1.290       .  A
O957        H974   0.990       .  S
O957        H989   0.990       .  S
O958        H975   0.990       .  S
O959        H979   0.990       .  S
O959        H988   0.990       .  S
O960        C961   1.275       .  A
C961       C2534   1.489       .  S
O962        H981   0.990       .  S
O962        H985   0.990       .  S
O963        H977   0.990       .  S
O963        H984   0.990       .  S
O964        C968   1.290       .  A
O965        C968   1.281       .  A
O966        H976   0.990       .  S
O967        H980   0.990       .  S
C968       C2847   1.485       .  S
Zr991       O992   2.440       .  S
Zr991       O993   2.450       .  S
Zr991       O994   2.475       .  S
Zr991       O997   2.464       .  S
Zr991       O999   2.381       .  S
Zr991      O1000   2.391       .  S
Zr991      O1001   2.411   1_554  S
Zr991      O1002   2.406   1_554  S
O992       H1048   0.990       .  S
O992       H1056   0.990       .  S
O993       C1013   1.286       .  A
O994       C1015   1.291   1_554  A
O995      Zr1005   2.409       .  S
O995       C1014   1.281       .  A
O996      Zr1004   2.423       .  S
O996       C1015   1.284       .  A
O997       C1014   1.290   1_554  A
O998      Zr1006   2.388       .  S
O998       C1013   1.275       .  A
O999      Zr1004   2.395   1_554  S
O999      Zr1006   2.384       .  S
O1000     Zr1005   2.394   1_554  S
O1000     Zr1006   2.375       .  S
O1000      H1035   0.965       .  S
O1001     Zr1004   2.397       .  S
O1001     Zr1021   2.373       .  S
O1001      H1038   0.964       .  S
O1002     Zr1005   2.387       .  S
O1002     Zr1021   2.390       .  S
Zr1003     O1028   2.439       .  S
Zr1003     O1022   2.465       .  S
Zr1003     O1030   2.463       .  S
Zr1003     O1018   2.480       .  S
Zr1003     O1009   2.409       .  S
Zr1003     O1010   2.414       .  S
Zr1003     O1011   2.380       .  S
Zr1003     O1012   2.387       .  S
Zr1004     O1023   2.436       .  S
Zr1004     O1016   2.436       .  S
Zr1004     O1017   2.408       .  S
Zr1004     O1010   2.403       .  S
Zr1004     O1011   2.395       .  S
Zr1005     O1007   2.435       .  S
Zr1005     O1029   2.440       .  S
Zr1005     O1031   2.413       .  S
Zr1005     O1009   2.387       .  S
Zr1005     O1012   2.389       .  S
Zr1006     O1032   2.436       .  S
Zr1006     O1033   2.435       .  S
Zr1006     O1008   2.437       .  S
Zr1006     O1009   2.388   1_554  S
Zr1006     O1010   2.378   1_554  S
O1007      H1044   0.990       .  S
O1008      H1039   0.990       .  S
O1008      H1053   0.990       .  S
O1010      H1036   0.964       .  S
O1011     Zr1021   2.382       .  S
O1012     Zr1021   2.376       .  S
O1012      H1037   0.965       .  S
C1013      C2547   1.484       .  S
C1014      C2817   1.491   1_556  S
C1015      C2737   1.493   1_556  S
O1016      H1052   0.990       .  S
O1017      C1019   1.281       .  A
O1018      C1019   1.292       .  A
C1019      C2567   1.489       .  S
O1020     Zr1021   2.437       .  S
O1020      H1049   0.990       .  S
Zr1021     O1024   2.436       .  S
Zr1021     O1025   2.439       .  S
Zr1021     O1026   2.396       .  S
O1022      C1027   1.290       .  A
O1023      H1040   0.990       .  S
O1023      H1055   0.990       .  S
O1024      H1041   0.990       .  S
O1025      H1045   0.990       .  S
O1025      H1054   0.990       .  S
O1026      C1027   1.278       .  A
C1027      C2537   1.491       .  S
O1028      H1047   0.990       .  S
O1028      H1051   0.990       .  S
O1029      H1043   0.990       .  S
O1029      H1050   0.990   1_556  S
O1030      C1034   1.290       .  A
O1031      C1034   1.283       .  A
O1032      H1042   0.990       .  S
O1033      H1046   0.990   1_554  S
C1034      C2517   1.490       .  S
Zr1057     O1058   2.442       .  S
Zr1057     O1059   2.447       .  S
Zr1057     O1060   2.457       .  S
Zr1057     O1063   2.450       .  S
Zr1057     O1065   2.384       .  S
Zr1057     O1066   2.387       .  S
Zr1057     O1067   2.413       .  S
Zr1057     O1068   2.407       .  S
O1058      H1114   0.990       .  S
O1058      H1122   0.990       .  S
O1059      C1079   1.285       .  A
O1060      C1081   1.287       .  A
O1061     Zr1071   2.410       .  S
O1061      C1080   1.282       .  A
O1062     Zr1070   2.419       .  S
O1062      C1081   1.282       .  A
O1063      C1080   1.287       .  A
O1064     Zr1072   2.395       .  S
O1064      C1079   1.277       .  A
O1065     Zr1070   2.394       .  S
O1065     Zr1072   2.389       .  S
O1066     Zr1071   2.384       .  S
O1066     Zr1072   2.371       .  S
O1066      H1101   0.967       .  S
O1067     Zr1070   2.392       .  S
O1067     Zr1087   2.377       .  S
O1067      H1104   0.964       .  S
O1068     Zr1071   2.386       .  S
O1068     Zr1087   2.384       .  S
Zr1069     O1094   2.443       .  S
Zr1069     O1088   2.463       .  S
Zr1069     O1096   2.476       .  S
Zr1069     O1084   2.473       .  S
Zr1069     O1075   2.412       .  S
Zr1069     O1076   2.418       .  S
Zr1069     O1077   2.387       .  S
Zr1069     O1078   2.392       .  S
Zr1070     O1089   2.437       .  S
Zr1070     O1082   2.436       .  S
Zr1070     O1083   2.407       .  S
Zr1070     O1076   2.401       .  S
Zr1070     O1077   2.394       .  S
Zr1071     O1073   2.434       .  S
Zr1071     O1095   2.439       .  S
Zr1071     O1097   2.406       .  S
Zr1071     O1075   2.390       .  S
Zr1071     O1078   2.393       .  S
Zr1072     O1098   2.435       .  S
Zr1072     O1099   2.436       .  S
Zr1072     O1074   2.436       .  S
Zr1072     O1075   2.390       .  S
Zr1072     O1076   2.376       .  S
O1073      H1110   0.990       .  S
O1074      H1105   0.990       .  S
O1074      H1119   0.990       .  S
O1076      H1102   0.964       .  S
O1077     Zr1087   2.386       .  S
O1078     Zr1087   2.378       .  S
O1078      H1103   0.966       .  S
C1079      C2487   1.481       .  S
C1080      C2857   1.483       .  S
C1081      C2497   1.483       .  S
O1082      H1118   0.990       .  S
O1083      C1085   1.281       .  A
O1084      C1085   1.293       .  A
C1085      C2504   1.483       .  S
O1086     Zr1087   2.438       .  S
O1086      H1115   0.990       .  S
Zr1087     O1090   2.437       .  S
Zr1087     O1091   2.439       .  S
Zr1087     O1092   2.390       .  S
O1088      C1093   1.289       .  A
O1089      H1106   0.990       .  S
O1089      H1121   0.990       .  S
O1090      H1107   0.989       .  S
O1091      H1111   0.990       .  S
O1091      H1120   0.989       .  S
O1092      C1093   1.276       .  A
C1093      C2474   1.489       .  S
O1094      H1113   0.991       .  S
O1094      H1117   0.991       .  S
O1095      H1109   0.990       .  S
O1095      H1116   0.990       .  S
O1096      C1100   1.291       .  A
O1097      C1100   1.280       .  A
O1098      H1108   0.990       .  S
O1099      H1112   0.990       .  S
C1100      C2464   1.490       .  S
Zr1123     O1124   2.442       .  S
Zr1123     O1125   2.453       .  S
Zr1123     O1126   2.464       .  S
Zr1123     O1129   2.456       .  S
Zr1123     O1131   2.384       .  S
Zr1123     O1132   2.391       .  S
Zr1123     O1133   2.416   1_554  S
Zr1123     O1134   2.404   1_554  S
O1124      H1180   0.990       .  S
O1124      H1188   0.991       .  S
O1125      C1145   1.287       .  A
O1126      C1147   1.289   1_554  A
O1127     Zr1137   2.416       .  S
O1127      C1146   1.284       .  A
O1128     Zr1136   2.410       .  S
O1128      C1147   1.279       .  A
O1129      C1146   1.288   1_554  A
O1130     Zr1138   2.397       .  S
O1130      C1145   1.277       .  A
O1131     Zr1136   2.395   1_554  S
O1131     Zr1138   2.384       .  S
O1132     Zr1137   2.393   1_554  S
O1132     Zr1138   2.376       .  S
O1132      H1167   0.966       .  S
O1133     Zr1136   2.399       .  S
O1133     Zr1153   2.382       .  S
O1133      H1170   0.964       .  S
O1134     Zr1137   2.384       .  S
O1134     Zr1153   2.383       .  S
Zr1135     O1160   2.440       .  S
Zr1135     O1154   2.470       .  S
Zr1135     O1162   2.459       .  S
Zr1135     O1150   2.478       .  S
Zr1135     O1141   2.411       .  S
Zr1135     O1142   2.414       .  S
Zr1135     O1143   2.385       .  S
Zr1135     O1144   2.390       .  S
Zr1136     O1155   2.438       .  S
Zr1136     O1148   2.437       .  S
Zr1136     O1149   2.415       .  S
Zr1136     O1142   2.396       .  S
Zr1136     O1143   2.396       .  S
Zr1137     O1139   2.436       .  S
Zr1137     O1161   2.437       .  S
Zr1137     O1163   2.408       .  S
Zr1137     O1141   2.390       .  S
Zr1137     O1144   2.390       .  S
Zr1138     O1164   2.435       .  S
Zr1138     O1165   2.434       .  S
Zr1138     O1140   2.437       .  S
Zr1138     O1141   2.388   1_554  S
Zr1138     O1142   2.382   1_554  S
O1139      H1176   0.990       .  S
O1140      H1171   0.990       .  S
O1140      H1185   0.990       .  S
O1142      H1168   0.964       .  S
O1143     Zr1153   2.388       .  S
O1144     Zr1153   2.375       .  S
O1144      H1169   0.966       .  S
C1145      C2484   1.483       .  S
C1146      C2434   1.488   1_556  S
C1147      C2454   1.483   1_556  S
O1148      H1184   0.990   1_556  S
O1149      C1151   1.282       .  A
O1150      C1151   1.291       .  A
C1151      C2444   1.487       .  S
O1152     Zr1153   2.438       .  S
O1152      H1181   0.990       .  S
Zr1153     O1156   2.436       .  S
Zr1153     O1157   2.440       .  S
Zr1153     O1158   2.393       .  S
O1154      C1159   1.291       .  A
O1155      H1172   0.990       .  S
O1155      H1187   0.990       .  S
O1156      H1173   0.990       .  S
O1157      H1177   0.990       .  S
O1157      H1186   0.990       .  S
O1158      C1159   1.277       .  A
C1159      C2477   1.492       .  S
O1160      H1179   0.991       .  S
O1160      H1183   0.990       .  S
O1161      H1175   0.990       .  S
O1161      H1182   0.990       .  S
O1162      C1166   1.289       .  A
O1163      C1166   1.281       .  A
O1164      H1174   0.990       .  S
O1165      H1178   0.990   1_554  S
C1166      C2824   1.485       .  S
Zr1189     O1190   2.442   1_554  S
Zr1189     O1191   2.452   1_554  S
Zr1189     O1192   2.470       .  S
Zr1189     O1195   2.460       .  S
Zr1189     O1197   2.387       .  S
Zr1189     O1198   2.395   1_554  S
Zr1189     O1199   2.415       .  S
Zr1189     O1200   2.401       .  S
O1190      H1246   0.990       .  S
O1190      H1254   0.991       .  S
O1191      C1211   1.287       .  A
O1192      C1213   1.290       .  A
O1193     Zr1203   2.417       .  S
O1193      C1212   1.282       .  A
O1194     Zr1202   2.403       .  S
O1194      C1213   1.280       .  A
O1195      C1212   1.289       .  A
O1196     Zr1204   2.394       .  S
O1196      C1211   1.276       .  A
O1197     Zr1202   2.396       .  S
O1197     Zr1204   2.386   1_554  S
O1198     Zr1203   2.387   1_556  S
O1198     Zr1204   2.374       .  S
O1198      H1233   0.966       .  S
O1199     Zr1202   2.400       .  S
O1199     Zr1219   2.382       .  S
O1199      H1236   0.964       .  S
O1200     Zr1203   2.382       .  S
O1200     Zr1219   2.379       .  S
Zr1201     O1226   2.442       .  S
Zr1201     O1220   2.470       .  S
Zr1201     O1228   2.458       .  S
Zr1201     O1216   2.482       .  S
Zr1201     O1207   2.416       .  S
Zr1201     O1208   2.414       .  S
Zr1201     O1209   2.382       .  S
Zr1201     O1210   2.393       .  S
Zr1202     O1221   2.437       .  S
Zr1202     O1214   2.434       .  S
Zr1202     O1215   2.415       .  S
Zr1202     O1208   2.395       .  S
Zr1202     O1209   2.392       .  S
Zr1203     O1205   2.434       .  S
Zr1203     O1227   2.442       .  S
Zr1203     O1229   2.404       .  S
Zr1203     O1207   2.388       .  S
Zr1203     O1210   2.398       .  S
Zr1204     O1230   2.436       .  S
Zr1204     O1231   2.436       .  S
Zr1204     O1206   2.438       .  S
Zr1204     O1207   2.392   1_556  S
Zr1204     O1208   2.371   1_556  S
O1205      H1242   0.990       .  S
O1206      H1237   0.990       .  S
O1206      H1251   0.990       .  S
O1208      H1234   0.963       .  S
O1209     Zr1219   2.392       .  S
O1210     Zr1219   2.378       .  S
O1210      H1235   0.966       .  S
C1211      C2407   1.483       .  S
C1212      C2394   1.488   1_554  S
C1213      C2457   1.481       .  S
O1214      H1250   0.990       .  S
O1215      C1217   1.282       .  A
O1216      C1217   1.292       .  A
C1217      C2427   1.493       .  S
O1218     Zr1219   2.439       .  S
O1218      H1247   0.990       .  S
Zr1219     O1222   2.436       .  S
Zr1219     O1223   2.439       .  S
Zr1219     O1224   2.398       .  S
O1220      C1225   1.291       .  A
O1221      H1238   0.990       .  S
O1221      H1253   0.990       .  S
O1222      H1239   0.990       .  S
O1223      H1243   0.990       .  S
O1223      H1252   0.990       .  S
O1224      C1225   1.278       .  A
C1225      C2417   1.495       .  S
O1226      H1245   0.991       .  S
O1226      H1249   0.990       .  S
O1227      H1241   0.990       .  S
O1227      H1248   0.990   1_554  S
O1228      C1232   1.289       .  A
O1229      C1232   1.280       .  A
O1230      H1240   0.990       .  S
O1231      H1244   0.990   1_556  S
C1232      C2927   1.482       .  S
Zr1255     O1256   2.442       .  S
Zr1255     O1257   2.456       .  S
Zr1255     O1258   2.466       .  S
Zr1255     O1261   2.436       .  S
Zr1255     O1263   2.380       .  S
Zr1255     O1264   2.394       .  S
Zr1255     O1265   2.411       .  S
Zr1255     O1266   2.412       .  S
O1256      H1312   0.990       .  S
O1256      H1320   0.991       .  S
O1257      C1277   1.288       .  A
O1258      C1279   1.288       .  A
O1259     Zr1269   2.424       .  S
O1259      C1278   1.285       .  A
O1260     Zr1268   2.422       .  S
O1260      C1279   1.283       .  A
O1261      C1278   1.284       .  A
O1262     Zr1270   2.389       .  S
O1262      C1277   1.275       .  A
O1263     Zr1268   2.390       .  S
O1263     Zr1270   2.389       .  S
O1264     Zr1269   2.394       .  S
O1264     Zr1270   2.376       .  S
O1264      H1299   0.966       .  S
O1265     Zr1268   2.395       .  S
O1265     Zr1285   2.377       .  S
O1265      H1302   0.963       .  S
O1266     Zr1269   2.386       .  S
O1266     Zr1285   2.392       .  S
Zr1267     O1292   2.441       .  S
Zr1267     O1286   2.459       .  S
Zr1267     O1294   2.461       .  S
Zr1267     O1282   2.470       .  S
Zr1267     O1273   2.411       .  S
Zr1267     O1274   2.410       .  S
Zr1267     O1275   2.380       .  S
Zr1267     O1276   2.393       .  S
Zr1268     O1287   2.434       .  S
Zr1268     O1280   2.434       .  S
Zr1268     O1281   2.408       .  S
Zr1268     O1274   2.398       .  S
Zr1268     O1275   2.398       .  S
Zr1269     O1271   2.437       .  S
Zr1269     O1293   2.436       .  S
Zr1269     O1295   2.424       .  S
Zr1269     O1273   2.395       .  S
Zr1269     O1276   2.391       .  S
Zr1270     O1296   2.437       .  S
Zr1270     O1297   2.436       .  S
Zr1270     O1272   2.438       .  S
Zr1270     O1273   2.384       .  S
Zr1270     O1274   2.381       .  S
O1271      H1308   0.990       .  S
O1272      H1303   0.990       .  S
O1272      H1317   0.989       .  S
O1274      H1300   0.965       .  S
O1275     Zr1285   2.384       .  S
O1276     Zr1285   2.377       .  S
O1276      H1301   0.966       .  S
C1277      C2404   1.483       .  S
C1278      C2897   1.481       .  S
C1279      C2384   1.490       .  S
O1280      H1316   0.990       .  S
O1281      C1283   1.280       .  A
O1282      C1283   1.291       .  A
C1283      C2507   1.482       .  S
O1284     Zr1285   2.441       .  S
O1284      H1313   0.990       .  S
Zr1285     O1288   2.436       .  S
Zr1285     O1289   2.441       .  S
Zr1285     O1290   2.406       .  S
O1286      C1291   1.289       .  A
O1287      H1304   0.990       .  S
O1287      H1319   0.990       .  S
O1288      H1305   0.990       .  S
O1289      H1309   0.990       .  S
O1289      H1318   0.990       .  S
O1290      C1291   1.279       .  A
C1291      C2414   1.492       .  S
O1292      H1311   0.990       .  S
O1292      H1315   0.990       .  S
O1293      H1307   0.989       .  S
O1293      H1314   0.990       .  S
O1294      C1298   1.289       .  A
O1295      C1298   1.283       .  A
O1296      H1306   0.990       .  S
O1297      H1310   0.990       .  S
C1298      C2374   1.490       .  S
Zr1321     O1322   2.441       .  S
Zr1321     O1323   2.464       .  S
Zr1321     O1324   2.487       .  S
Zr1321     O1327   2.453       .  S
Zr1321     O1329   2.381       .  S
Zr1321     O1330   2.394       .  S
Zr1321     O1331   2.412       .  S
Zr1321     O1332   2.412       .  S
O1322      H1378   0.990       .  S
O1322      H1386   0.991       .  S
O1323      C1343   1.289       .  A
O1324      C1345   1.293       .  A
O1325     Zr1335   2.412       .  S
O1325      C1344   1.282       .  A
O1326     Zr1334   2.424       .  S
O1326      C1345   1.283       .  A
O1327      C1344   1.288       .  A
O1328     Zr1336   2.384       .  S
O1328      C1343   1.274       .  A
O1329     Zr1334   2.397       .  S
O1329     Zr1336   2.390       .  S
O1330     Zr1335   2.393       .  S
O1330     Zr1336   2.371       .  S
O1330      H1365   0.967       .  S
O1331     Zr1334   2.401       .  S
O1331     Zr1351   2.378       .  S
O1331      H1368   0.964       .  S
O1332     Zr1335   2.391       .  S
O1332     Zr1351   2.387       .  S
Zr1333     O1358   2.440       .  S
Zr1333     O1352   2.459       .  S
Zr1333     O1360   2.469       .  S
Zr1333     O1348   2.475       .  S
Zr1333     O1339   2.407       .  S
Zr1333     O1340   2.417       .  S
Zr1333     O1341   2.384       .  S
Zr1333     O1342   2.389       .  S
Zr1334     O1353   2.437       .  S
Zr1334     O1346   2.436       .  S
Zr1334     O1347   2.421       .  S
Zr1334     O1340   2.404       .  S
Zr1334     O1341   2.396       .  S
Zr1335     O1337   2.435       .  S
Zr1335     O1359   2.438       .  S
Zr1335     O1361   2.419       .  S
Zr1335     O1339   2.388       .  S
Zr1335     O1342   2.390       .  S
Zr1336     O1362   2.439       .  S
Zr1336     O1363   2.435       .  S
Zr1336     O1338   2.437       .  S
Zr1336     O1339   2.386       .  S
Zr1336     O1340   2.373       .  S
O1337      H1374   0.990       .  S
O1338      H1369   0.990       .  S
O1338      H1383   0.990       .  S
O1340      H1366   0.964       .  S
O1341     Zr1351   2.385       .  S
O1342     Zr1351   2.375       .  S
O1342      H1367   0.966       .  S
C1343      C2354   1.487       .  S
C1344      C2337   1.487       .  S
C1345      C2367   1.491       .  S
O1346      H1382   0.990       .  S
O1347      C1349   1.283       .  A
O1348      C1349   1.292       .  A
C1349      C2424   1.483       .  S
O1350     Zr1351   2.439       .  S
O1350      H1379   0.991       .  S
Zr1351     O1354   2.436       .  S
Zr1351     O1355   2.441       .  S
Zr1351     O1356   2.392       .  S
O1352      C1357   1.288       .  A
O1353      H1370   0.990       .  S
O1353      H1385   0.990       .  S
O1354      H1371   0.990       .  S
O1355      H1375   0.990       .  S
O1355      H1384   0.990       .  S
O1356      C1357   1.276       .  A
C1357      C2344   1.487   1_554  S
O1358      H1377   0.990       .  S
O1358      H1381   0.990       .  S
O1359      H1373   0.990       .  S
O1359      H1380   0.990       .  S
O1360      C1364   1.291       .  A
O1361      C1364   1.282       .  A
O1362      H1372   0.990       .  S
O1363      H1376   0.990       .  S
C1364      C3017   1.491       .  S
Zr1387     O1388   2.442       .  S
Zr1387     O1389   2.466       .  S
Zr1387     O1390   2.478       .  S
Zr1387     O1393   2.450       .  S
Zr1387     O1395   2.381       .  S
Zr1387     O1396   2.394       .  S
Zr1387     O1397   2.411       .  S
Zr1387     O1398   2.412       .  S
O1388      H1444   0.990       .  S
O1388      H1452   0.991       .  S
O1389      C1409   1.290       .  A
O1390      C1411   1.292       .  A
O1391     Zr1401   2.414       .  S
O1391      C1410   1.282       .  A
O1392     Zr1400   2.414       .  S
O1392      C1411   1.281       .  A
O1393      C1410   1.287       .  A
O1394     Zr1402   2.395       .  S
O1394      C1409   1.276       .  A
O1395     Zr1400   2.395       .  S
O1395     Zr1402   2.387       .  S
O1396     Zr1401   2.396       .  S
O1396     Zr1402   2.372       .  S
O1396      H1431   0.965       .  S
O1397     Zr1400   2.396       .  S
O1397     Zr1417   2.373       .  S
O1397      H1434   0.963       .  S
O1398     Zr1401   2.387       .  S
O1398     Zr1417   2.387       .  S
Zr1399     O1424   2.441       .  S
Zr1399     O1418   2.474       .  S
Zr1399     O1426   2.466       .  S
Zr1399     O1414   2.492       .  S
Zr1399     O1405   2.416       .  S
Zr1399     O1406   2.418       .  S
Zr1399     O1407   2.382       .  S
Zr1399     O1408   2.396       .  S
Zr1400     O1419   2.435       .  S
Zr1400     O1412   2.434       .  S
Zr1400     O1413   2.405       .  S
Zr1400     O1406   2.401       .  S
Zr1400     O1407   2.393       .  S
Zr1401     O1403   2.436       .  S
Zr1401     O1425   2.439       .  S
Zr1401     O1427   2.419       .  S
Zr1401     O1405   2.390       .  S
Zr1401     O1408   2.389       .  S
Zr1402     O1428   2.436       .  S
Zr1402     O1429   2.433       .  S
Zr1402     O1404   2.435       .  S
Zr1402     O1405   2.389       .  S
Zr1402     O1406   2.376       .  S
O1403      H1440   0.990       .  S
O1404      H1435   0.990       .  S
O1404      H1449   0.990       .  S
O1406      H1432   0.963       .  S
O1407     Zr1417   2.381       .  S
O1408     Zr1417   2.375       .  S
O1408      H1433   0.966       .  S
C1409      C2347   1.488       .  S
C1410      C2314   1.480       .  S
C1411      C2327   1.492       .  S
O1412      H1448   0.990       .  S
O1413      C1415   1.280       .  A
O1414      C1415   1.295       .  A
C1415      C2387   1.488       .  S
O1416     Zr1417   2.437       .  S
O1416      H1445   0.991       .  S
Zr1417     O1420   2.439       .  S
Zr1417     O1421   2.439       .  S
Zr1417     O1422   2.379       .  S
O1418      C1423   1.291       .  A
O1419      H1436   0.990       .  S
O1419      H1451   0.990       .  S
O1420      H1437   0.990       .  S
O1421      H1441   0.990       .  S
O1421      H1450   0.990       .  S
O1422      C1423   1.274       .  A
C1423      C2357   1.488       .  S
O1424      H1443   0.990       .  S
O1424      H1447   0.990       .  S
O1425      H1439   0.990       .  S
O1425      H1446   0.990       .  S
O1426      C1430   1.290       .  A
O1427      C1430   1.284       .  A
O1428      H1438   0.990       .  S
O1429      H1442   0.990       .  S
C1430      C2977   1.496       .  S
Zr1453     O1454   2.442       .  S
Zr1453     O1455   2.451       .  S
Zr1453     O1456   2.482       .  S
Zr1453     O1459   2.456       .  S
Zr1453     O1461   2.385       .  S
Zr1453     O1462   2.398       .  S
Zr1453     O1463   2.412       .  S
Zr1453     O1464   2.407       .  S
O1454      H1510   0.990       .  S
O1454      H1518   0.990       .  S
O1455      C1475   1.287       .  A
O1456      C1477   1.292       .  A
O1457     Zr1467   2.408       .  S
O1457      C1476   1.281       .  A
O1458     Zr1466   2.426       .  S
O1458      C1477   1.284       .  A
O1459      C1476   1.289       .  A
O1460     Zr1468   2.403       .  S
O1460      C1475   1.278       .  A
O1461     Zr1466   2.393       .  S
O1461     Zr1468   2.391       .  S
O1462     Zr1467   2.394       .  S
O1462     Zr1468   2.376       .  S
O1462      H1497   0.966       .  S
O1463     Zr1466   2.397       .  S
O1463     Zr1483   2.372       .  S
O1463      H1500   0.964       .  S
O1464     Zr1467   2.390       .  S
O1464     Zr1483   2.386       .  S
Zr1465     O1490   2.443       .  S
Zr1465     O1484   2.464       .  S
Zr1465     O1492   2.458       .  S
Zr1465     O1480   2.470       .  S
Zr1465     O1471   2.408       .  S
Zr1465     O1472   2.423       .  S
Zr1465     O1473   2.388       .  S
Zr1465     O1474   2.391       .  S
Zr1466     O1485   2.436       .  S
Zr1466     O1478   2.436       .  S
Zr1466     O1479   2.420       .  S
Zr1466     O1472   2.401       .  S
Zr1466     O1473   2.400       .  S
Zr1467     O1469   2.435       .  S
Zr1467     O1491   2.436       .  S
Zr1467     O1493   2.423       .  S
Zr1467     O1471   2.383       .  S
Zr1467     O1474   2.388       .  S
Zr1468     O1494   2.435       .  S
Zr1468     O1495   2.437       .  S
Zr1468     O1470   2.437       .  S
Zr1468     O1471   2.388       .  S
Zr1468     O1472   2.375       .  S
O1469      H1506   0.990       .  S
O1470      H1501   0.990       .  S
O1470      H1515   0.990       .  S
O1472      H1498   0.964       .  S
O1473     Zr1483   2.390       .  S
O1474     Zr1483   2.378       .  S
O1474      H1499   0.966       .  S
C1475      C2307   1.488       .  S
C1476      C2284   1.486       .  S
C1477      C2364   1.497       .  S
O1478      H1514   0.990       .  S
O1479      C1481   1.283       .  A
O1480      C1481   1.290       .  A
C1481      C2494   1.482       .  S
O1482     Zr1483   2.439       .  S
O1482      H1511   0.991       .  S
Zr1483     O1486   2.438       .  S
Zr1483     O1487   2.439       .  S
Zr1483     O1488   2.386       .  S
O1484      C1489   1.289       .  A
O1485      H1502   0.990       .  S
O1485      H1517   0.990       .  S
O1486      H1503   0.990       .  S
O1487      H1507   0.990       .  S
O1487      H1516   0.990       .  S
O1488      C1489   1.275       .  A
C1489      C2294   1.484       .  S
O1490      H1509   0.990       .  S
O1490      H1513   0.990       .  S
O1491      H1505   0.990       .  S
O1491      H1512   0.990       .  S
O1492      C1496   1.288       .  A
O1493      C1496   1.284       .  A
O1494      H1504   0.990       .  S
O1495      H1508   0.991       .  S
C1496      C2787   1.491       .  S
Zr1519     O1520   2.442       .  S
Zr1519     O1521   2.454       .  S
Zr1519     O1522   2.472       .  S
Zr1519     O1525   2.453       .  S
Zr1519     O1527   2.381       .  S
Zr1519     O1528   2.393       .  S
Zr1519     O1529   2.413       .  S
Zr1519     O1530   2.404       .  S
O1520      H1576   0.990       .  S
O1520      H1584   0.990       .  S
O1521      C1541   1.288       .  A
O1522      C1543   1.290       .  A
O1523     Zr1533   2.416       .  S
O1523      C1542   1.283       .  A
O1524     Zr1532   2.422       .  S
O1524      C1543   1.283       .  A
O1525      C1542   1.288       .  A
O1526     Zr1534   2.403       .  S
O1526      C1541   1.278       .  A
O1527     Zr1532   2.396       .  S
O1527     Zr1534   2.390       .  S
O1528     Zr1533   2.388       .  S
O1528     Zr1534   2.375       .  S
O1528      H1563   0.966       .  S
O1529     Zr1532   2.398       .  S
O1529     Zr1549   2.379       .  S
O1529      H1566   0.964       .  S
O1530     Zr1533   2.387       .  S
O1530     Zr1549   2.377       .  S
Zr1531     O1556   2.443       .  S
Zr1531     O1550   2.463       .  S
Zr1531     O1558   2.466       .  S
Zr1531     O1546   2.468       .  S
Zr1531     O1537   2.411       .  S
Zr1531     O1538   2.410       .  S
Zr1531     O1539   2.384       .  S
Zr1531     O1540   2.389       .  S
Zr1532     O1551   2.437       .  S
Zr1532     O1544   2.435       .  S
Zr1532     O1545   2.411       .  S
Zr1532     O1538   2.392       .  S
Zr1532     O1539   2.395       .  S
Zr1533     O1535   2.435       .  S
Zr1533     O1557   2.438       .  S
Zr1533     O1559   2.415       .  S
Zr1533     O1537   2.391       .  S
Zr1533     O1540   2.392       .  S
Zr1534     O1560   2.435       .  S
Zr1534     O1561   2.437       .  S
Zr1534     O1536   2.439       .  S
Zr1534     O1537   2.397       .  S
Zr1534     O1538   2.374       .  S
O1535      H1572   0.990       .  S
O1536      H1567   0.990       .  S
O1536      H1581   0.990       .  S
O1538      H1564   0.964       .  S
O1539     Zr1549   2.386       .  S
O1540     Zr1549   2.378       .  S
O1540      H1565   0.966       .  S
C1541      C2304   1.489   1_556  S
C1542      C2764   1.482       .  S
C1543      C2447   1.490       .  S
O1544      H1580   0.990       .  S
O1545      C1547   1.281       .  A
O1546      C1547   1.291       .  A
C1547      C2324   1.478       .  S
O1548     Zr1549   2.438       .  S
O1548      H1577   0.990       .  S
Zr1549     O1552   2.437       .  S
Zr1549     O1553   2.441       .  S
Zr1549     O1554   2.387       .  S
O1550      C1555   1.290       .  A
O1551      H1568   0.990       .  S
O1551      H1583   0.990       .  S
O1552      H1569   0.990       .  S
O1553      H1573   0.990       .  S
O1553      H1582   0.990       .  S
O1554      C1555   1.275       .  A
C1555      C2297   1.485       .  S
O1556      H1575   0.990       .  S
O1556      H1579   0.991       .  S
O1557      H1571   0.990       .  S
O1557      H1578   0.990       .  S
O1558      C1562   1.289       .  A
O1559      C1562   1.281       .  A
O1560      H1570   0.990       .  S
O1561      H1574   0.990       .  S
C1562      C2274   1.494       .  S
Zr1585     O1586   2.440       .  S
Zr1585     O1587   2.455       .  S
Zr1585     O1588   2.461       .  S
Zr1585     O1591   2.462       .  S
Zr1585     O1593   2.386       .  S
Zr1585     O1594   2.391       .  S
Zr1585     O1595   2.415       .  S
Zr1585     O1596   2.395       .  S
O1586      H1642   0.990       .  S
O1586      H1650   0.990       .  S
O1587      C1607   1.287       .  A
O1588      C1609   1.289       .  A
O1589     Zr1599   2.416       .  S
O1589      C1608   1.283       .  A
O1590     Zr1598   2.431       .  S
O1590      C1609   1.285       .  A
O1591      C1608   1.289       .  A
O1592     Zr1600   2.401       .  S
O1592      C1607   1.278       .  A
O1593     Zr1598   2.397       .  S
O1593     Zr1600   2.383       .  S
O1594     Zr1599   2.397       .  S
O1594     Zr1600   2.380       .  S
O1594      H1629   0.966       .  S
O1595     Zr1598   2.397       .  S
O1595     Zr1615   2.379   1_554  S
O1595      H1632   0.964       .  S
O1596     Zr1599   2.382       .  S
O1596     Zr1615   2.377   1_554  S
Zr1597     O1622   2.442       .  S
Zr1597     O1616   2.454       .  S
Zr1597     O1624   2.459       .  S
Zr1597     O1612   2.455       .  S
Zr1597     O1603   2.401   1_556  S
Zr1597     O1604   2.414   1_556  S
Zr1597     O1605   2.383       .  S
Zr1597     O1606   2.386       .  S
Zr1598     O1617   2.434       .  S
Zr1598     O1610   2.435       .  S
Zr1598     O1611   2.422       .  S
Zr1598     O1604   2.397       .  S
Zr1598     O1605   2.393   1_554  S
Zr1599     O1601   2.435       .  S
Zr1599     O1623   2.436       .  S
Zr1599     O1625   2.424       .  S
Zr1599     O1603   2.384       .  S
Zr1599     O1606   2.391   1_554  S
Zr1600     O1626   2.435       .  S
Zr1600     O1627   2.435       .  S
Zr1600     O1602   2.442       .  S
Zr1600     O1603   2.388       .  S
Zr1600     O1604   2.384       .  S
O1601      H1638   0.990       .  S
O1602      H1633   0.990       .  S
O1602      H1647   0.990       .  S
O1604      H1630   0.964       .  S
O1605     Zr1615   2.385       .  S
O1606     Zr1615   2.384       .  S
O1606      H1631   0.966       .  S
C1607      C2244   1.489       .  S
C1608      C2257   1.481       .  S
C1609      C2707   1.486       .  S
O1610      H1646   0.990       .  S
O1611      C1613   1.284       .  A
O1612      C1613   1.287   1_556  A
C1613      C2397   1.482   1_554  S
O1614     Zr1615   2.439   1_554  S
O1614      H1643   0.990   1_554  S
Zr1615     O1618   2.437       .  S
Zr1615     O1619   2.439       .  S
Zr1615     O1620   2.395       .  S
O1616      C1621   1.287       .  A
O1617      H1634   0.990       .  S
O1617      H1649   0.990       .  S
O1618      H1635   0.990       .  S
O1619      H1639   0.990       .  S
O1619      H1648   0.990       .  S
O1620      C1621   1.278       .  A
C1621      C2234   1.486       .  S
O1622      H1641   0.990       .  S
O1622      H1645   0.990       .  S
O1623      H1637   0.990       .  S
O1623      H1644   0.990       .  S
O1624      C1628   1.289   1_556  A
O1625      C1628   1.283       .  A
O1626      H1636   0.990       .  S
O1627      H1640   0.990       .  S
C1628      C2264   1.483   1_554  S
Zr1651     O1652   2.442       .  S
Zr1651     O1653   2.454       .  S
Zr1651     O1654   2.463       .  S
Zr1651     O1657   2.458       .  S
Zr1651     O1659   2.385       .  S
Zr1651     O1660   2.394       .  S
Zr1651     O1661   2.413       .  S
Zr1651     O1662   2.400       .  S
O1652      H1708   0.990       .  S
O1652      H1716   0.991       .  S
O1653      C1673   1.287       .  A
O1654      C1675   1.288       .  A
O1655     Zr1665   2.403       .  S
O1655      C1674   1.280       .  A
O1656     Zr1664   2.432       .  S
O1656      C1675   1.285       .  A
O1657      C1674   1.289       .  A
O1658     Zr1666   2.394       .  S
O1658      C1673   1.277       .  A
O1659     Zr1664   2.394       .  S
O1659     Zr1666   2.385       .  S
O1660     Zr1665   2.392       .  S
O1660     Zr1666   2.379       .  S
O1660      H1695   0.966       .  S
O1661     Zr1664   2.398       .  S
O1661     Zr1681   2.386       .  S
O1661      H1698   0.964       .  S
O1662     Zr1665   2.383       .  S
O1662     Zr1681   2.379       .  S
Zr1663     O1688   2.442       .  S
Zr1663     O1682   2.458       .  S
Zr1663     O1690   2.459       .  S
Zr1663     O1678   2.463       .  S
Zr1663     O1669   2.403       .  S
Zr1663     O1670   2.413       .  S
Zr1663     O1671   2.386       .  S
Zr1663     O1672   2.387       .  S
Zr1664     O1683   2.435       .  S
Zr1664     O1676   2.436       .  S
Zr1664     O1677   2.422       .  S
Zr1664     O1670   2.400       .  S
Zr1664     O1671   2.397       .  S
Zr1665     O1667   2.436       .  S
Zr1665     O1689   2.440       .  S
Zr1665     O1691   2.406       .  S
Zr1665     O1669   2.381       .  S
Zr1665     O1672   2.391       .  S
Zr1666     O1692   2.436       .  S
Zr1666     O1693   2.436       .  S
Zr1666     O1668   2.435       .  S
Zr1666     O1669   2.380       .  S
Zr1666     O1670   2.385       .  S
O1667      H1704   0.990       .  S
O1668      H1699   0.990       .  S
O1668      H1713   0.990       .  S
O1670      H1696   0.964       .  S
O1671     Zr1681   2.385       .  S
O1672     Zr1681   2.380       .  S
O1672      H1697   0.966       .  S
C1673      C2237   1.486       .  S
C1674      C2214   1.476       .  S
C1675      C2677   1.492       .  S
O1676      H1712   0.990       .  S
O1677      C1679   1.284       .  A
O1678      C1679   1.288       .  A
C1679      C2377   1.488       .  S
O1680     Zr1681   2.439       .  S
O1680      H1709   0.990       .  S
Zr1681     O1684   2.438       .  S
Zr1681     O1685   2.440       .  S
Zr1681     O1686   2.399       .  S
O1682      C1687   1.288       .  A
O1683      H1700   0.990       .  S
O1683      H1715   0.990       .  S
O1684      H1701   0.990       .  S
O1685      H1705   0.990       .  S
O1685      H1714   0.989       .  S
O1686      C1687   1.278       .  A
C1687      C2247   1.489       .  S
O1688      H1707   0.991       .  S
O1688      H1711   0.990       .  S
O1689      H1703   0.990       .  S
O1689      H1710   0.990       .  S
O1690      C1694   1.289       .  A
O1691      C1694   1.280       .  A
O1692      H1702   0.990       .  S
O1693      H1706   0.990       .  S
C1694      C2224   1.483       .  S
Zr1717     O1718   2.441       .  S
Zr1717     O1719   2.450       .  S
Zr1717     O1720   2.462       .  S
Zr1717     O1723   2.457       .  S
Zr1717     O1725   2.386       .  S
Zr1717     O1726   2.390       .  S
Zr1717     O1727   2.417       .  S
Zr1717     O1728   2.401       .  S
O1718      H1774   0.990       .  S
O1718      H1782   0.990       .  S
O1719      C1739   1.286       .  A
O1720      C1741   1.289       .  A
O1721     Zr1731   2.410       .  S
O1721      C1740   1.282       .  A
O1722     Zr1730   2.425       .  S
O1722      C1741   1.284       .  A
O1723      C1740   1.289       .  A
O1724     Zr1732   2.400       .  S
O1724      C1739   1.278       .  A
O1725     Zr1730   2.397       .  S
O1725     Zr1732   2.385       .  S
O1726     Zr1731   2.389       .  S
O1726     Zr1732   2.378       .  S
O1726      H1761   0.966       .  S
O1727     Zr1730   2.399       .  S
O1727     Zr1747   2.383       .  S
O1727      H1764   0.964       .  S
O1728     Zr1731   2.386       .  S
O1728     Zr1747   2.383       .  S
Zr1729     O1754   2.443       .  S
Zr1729     O1748   2.453       .  S
Zr1729     O1756   2.457       .  S
Zr1729     O1744   2.435       .  S
Zr1729     O1735   2.403       .  S
Zr1729     O1736   2.416       .  S
Zr1729     O1737   2.384       .  S
Zr1729     O1738   2.381       .  S
Zr1730     O1749   2.437       .  S
Zr1730     O1742   2.436       .  S
Zr1730     O1743   2.420       .  S
Zr1730     O1736   2.397       .  S
Zr1730     O1737   2.395       .  S
Zr1731     O1733   2.436       .  S
Zr1731     O1755   2.437       .  S
Zr1731     O1757   2.406       .  S
Zr1731     O1735   2.386       .  S
Zr1731     O1738   2.390       .  S
Zr1732     O1758   2.435       .  S
Zr1732     O1759   2.435       .  S
Zr1732     O1734   2.437       .  S
Zr1732     O1735   2.390       .  S
Zr1732     O1736   2.381       .  S
O1733      H1770   0.990       .  S
O1734      H1765   0.990       .  S
O1734      H1779   0.990       .  S
O1736      H1762   0.965       .  S
O1737     Zr1747   2.378       .  S
O1738     Zr1747   2.383       .  S
O1738      H1763   0.965       .  S
C1739      C2184   1.488       .  S
C1740      C2227   1.481       .  S
C1741      C2467   1.487       .  S
O1742      H1778   0.990       .  S
O1743      C1745   1.283       .  A
O1744      C1745   1.285       .  A
C1745      C2527   1.473       .  S
O1746     Zr1747   2.437       .  S
O1746      H1775   0.990       .  S
Zr1747     O1750   2.439       .  S
Zr1747     O1751   2.438       .  S
Zr1747     O1752   2.396       .  S
O1748      C1753   1.287       .  A
O1749      H1766   0.990       .  S
O1749      H1781   0.990       .  S
O1750      H1767   0.990       .  S
O1751      H1771   0.990       .  S
O1751      H1780   0.990       .  S
O1752      C1753   1.277       .  A
C1753      C2194   1.482       .  S
O1754      H1773   0.990       .  S
O1754      H1777   0.990       .  S
O1755      H1769   0.990       .  S
O1755      H1776   0.990       .  S
O1756      C1760   1.287       .  A
O1757      C1760   1.280       .  A
O1758      H1768   0.990       .  S
O1759      H1772   0.990       .  S
C1760      C2207   1.476       .  S
Zr1783     O1784   2.442   1_556  S
Zr1783     O1785   2.462   1_556  S
Zr1783     O1786   2.465   1_556  S
Zr1783     O1789   2.472       .  S
Zr1783     O1791   2.389   1_556  S
Zr1783     O1792   2.391   1_556  S
Zr1783     O1793   2.422       .  S
Zr1783     O1794   2.402       .  S
O1784      H1840   0.990       .  S
O1784      H1848   0.991       .  S
O1785      C1805   1.289       .  A
O1786      C1807   1.289   1_554  A
O1787     Zr1797   2.417       .  S
O1787      C1806   1.283       .  A
O1788     Zr1796   2.417       .  S
O1788      C1807   1.282       .  A
O1789      C1806   1.292       .  A
O1790     Zr1798   2.389       .  S
O1790      C1805   1.275       .  A
O1791     Zr1796   2.396   1_554  S
O1791     Zr1798   2.382       .  S
O1792     Zr1797   2.389   1_554  S
O1792     Zr1798   2.384       .  S
O1792      H1827   0.966       .  S
O1793     Zr1796   2.401       .  S
O1793     Zr1813   2.385       .  S
O1793      H1830   0.964       .  S
O1794     Zr1797   2.380       .  S
O1794     Zr1813   2.381       .  S
Zr1795     O1820   2.442       .  S
Zr1795     O1814   2.461       .  S
Zr1795     O1822   2.454       .  S
Zr1795     O1810   2.452       .  S
Zr1795     O1801   2.406       .  S
Zr1795     O1802   2.411       .  S
Zr1795     O1803   2.384       .  S
Zr1795     O1804   2.387       .  S
Zr1796     O1815   2.437       .  S
Zr1796     O1808   2.436       .  S
Zr1796     O1809   2.433       .  S
Zr1796     O1802   2.389       .  S
Zr1796     O1803   2.394       .  S
Zr1797     O1799   2.437       .  S
Zr1797     O1821   2.437       .  S
Zr1797     O1823   2.401       .  S
Zr1797     O1801   2.388       .  S
Zr1797     O1804   2.394       .  S
Zr1798     O1824   2.436       .  S
Zr1798     O1825   2.435   1_554  S
Zr1798     O1800   2.437       .  S
Zr1798     O1801   2.386   1_554  S
Zr1798     O1802   2.376   1_554  S
O1799      H1836   0.990       .  S
O1800      H1831   0.990       .  S
O1800      H1845   0.990       .  S
O1802      H1828   0.964       .  S
O1803     Zr1813   2.384       .  S
O1804     Zr1813   2.381       .  S
O1804      H1829   0.965       .  S
C1805      C2197   1.486       .  S
C1806      C2267   1.494       .  S
C1807      C2437   1.488   1_556  S
O1808      H1844   0.990   1_556  S
O1809      C1811   1.286       .  A
O1810      C1811   1.287       .  A
C1811      C2514   1.489       .  S
O1812     Zr1813   2.438       .  S
O1812      H1841   0.990       .  S
Zr1813     O1816   2.436       .  S
Zr1813     O1817   2.441       .  S
Zr1813     O1818   2.395       .  S
O1814      C1819   1.289       .  A
O1815      H1832   0.990       .  S
O1815      H1847   0.990       .  S
O1816      H1833   0.990       .  S
O1817      H1837   0.990       .  S
O1817      H1846   0.990       .  S
O1818      C1819   1.277       .  A
C1819      C2187   1.488       .  S
O1820      H1839   0.990       .  S
O1820      H1843   0.991       .  S
O1821      H1835   0.990       .  S
O1821      H1842   0.990       .  S
O1822      C1826   1.286       .  A
O1823      C1826   1.279       .  A
O1824      H1834   0.991       .  S
O1825      H1838   0.990       .  S
C1826      C2174   1.473       .  S
Zr1849     O1850   2.441       .  S
Zr1849     O1851   2.457       .  S
Zr1849     O1852   2.461       .  S
Zr1849     O1855   2.463       .  S
Zr1849     O1857   2.385       .  S
Zr1849     O1858   2.390       .  S
Zr1849     O1859   2.417       .  S
Zr1849     O1860   2.399       .  S
O1850      H1906   0.990       .  S
O1850      H1914   0.991       .  S
O1851      C1871   1.288       .  A
O1852      C1873   1.289       .  A
O1853     Zr1863   2.407       .  S
O1853      C1872   1.281       .  A
O1854     Zr1862   2.422       .  S
O1854      C1873   1.283       .  A
O1855      C1872   1.290       .  A
O1856     Zr1864   2.399       .  S
O1856      C1871   1.276       .  A
O1857     Zr1862   2.396       .  S
O1857     Zr1864   2.381       .  S
O1858     Zr1863   2.394       .  S
O1858     Zr1864   2.377       .  S
O1858      H1893   0.967       .  S
O1859     Zr1862   2.402       .  S
O1859     Zr1879   2.386       .  S
O1859      H1896   0.964       .  S
O1860     Zr1863   2.384       .  S
O1860     Zr1879   2.377       .  S
Zr1861     O1886   2.443       .  S
Zr1861     O1880   2.459       .  S
Zr1861     O1888   2.462       .  S
Zr1861     O1876   2.455       .  S
Zr1861     O1867   2.406       .  S
Zr1861     O1868   2.417       .  S
Zr1861     O1869   2.384       .  S
Zr1861     O1870   2.387       .  S
Zr1862     O1881   2.436       .  S
Zr1862     O1874   2.435       .  S
Zr1862     O1875   2.429       .  S
Zr1862     O1868   2.399       .  S
Zr1862     O1869   2.391       .  S
Zr1863     O1865   2.437       .  S
Zr1863     O1887   2.438       .  S
Zr1863     O1889   2.407       .  S
Zr1863     O1867   2.391       .  S
Zr1863     O1870   2.394       .  S
Zr1864     O1890   2.434       .  S
Zr1864     O1891   2.433       .  S
Zr1864     O1866   2.439       .  S
Zr1864     O1867   2.389       .  S
Zr1864     O1868   2.389       .  S
O1865      H1902   0.990       .  S
O1866      H1897   0.990       .  S
O1866      H1911   0.990       .  S
O1868      H1894   0.965       .  S
O1869     Zr1879   2.382       .  S
O1870     Zr1879   2.382       .  S
O1870      H1895   0.966       .  S
C1871      C2144   1.489       .  S
C1872      C2204   1.488       .  S
C1873      C2574   1.487       .  S
O1874      H1910   0.989       .  S
O1875      C1877   1.286       .  A
O1876      C1877   1.288       .  A
C1877      C2287   1.489       .  S
O1878     Zr1879   2.437       .  S
O1878      H1907   0.991       .  S
Zr1879     O1882   2.437       .  S
Zr1879     O1883   2.439       .  S
Zr1879     O1884   2.387       .  S
O1880      C1885   1.288       .  A
O1881      H1898   0.990       .  S
O1881      H1913   0.990       .  S
O1882      H1899   0.990       .  S
O1883      H1903   0.990       .  S
O1883      H1912   0.990       .  S
O1884      C1885   1.276       .  A
C1885      C2154   1.484       .  S
O1886      H1905   0.990       .  S
O1886      H1909   0.991       .  S
O1887      H1901   0.990       .  S
O1887      H1908   0.990       .  S
O1888      C1892   1.288       .  A
O1889      C1892   1.280       .  A
O1890      H1900   0.990       .  S
O1891      H1904   0.990       .  S
C1892      C2167   1.482       .  S
Zr1915     O1916   2.443       .  S
Zr1915     O1917   2.453       .  S
Zr1915     O1918   2.440       .  S
Zr1915     O1921   2.461       .  S
Zr1915     O1923   2.386       .  S
Zr1915     O1924   2.384       .  S
Zr1915     O1925   2.419       .  S
Zr1915     O1926   2.393       .  S
O1916      H1972   0.990       .  S
O1916      H1980   0.991       .  S
O1917      C1937   1.287       .  A
O1918      C1939   1.285       .  A
O1919     Zr1929   2.397       .  S
O1919      C1938   1.280       .  A
O1920     Zr1928   2.431       .  S
O1920      C1939   1.285       .  A
O1921      C1938   1.289       .  A
O1922     Zr1930   2.399       .  S
O1922      C1937   1.277       .  A
O1923     Zr1928   2.397       .  S
O1923     Zr1930   2.381       .  S
O1924     Zr1929   2.392       .  S
O1924     Zr1930   2.380       .  S
O1924      H1959   0.966       .  S
O1925     Zr1928   2.401       .  S
O1925     Zr1945   2.390       .  S
O1925      H1962   0.964       .  S
O1926     Zr1929   2.380       .  S
O1926     Zr1945   2.377       .  S
Zr1927     O1952   2.441       .  S
Zr1927     O1946   2.458       .  S
Zr1927     O1954   2.480       .  S
Zr1927     O1942   2.454       .  S
Zr1927     O1933   2.403       .  S
Zr1927     O1934   2.422       .  S
Zr1927     O1935   2.386       .  S
Zr1927     O1936   2.385       .  S
Zr1928     O1947   2.435       .  S
Zr1928     O1940   2.436       .  S
Zr1928     O1941   2.437       .  S
Zr1928     O1934   2.397       .  S
Zr1928     O1935   2.391       .  S
Zr1929     O1931   2.437       .  S
Zr1929     O1953   2.436       .  S
Zr1929     O1955   2.403       .  S
Zr1929     O1933   2.387       .  S
Zr1929     O1936   2.392       .  S
Zr1930     O1956   2.436       .  S
Zr1930     O1957   2.436       .  S
Zr1930     O1932   2.437       .  S
Zr1930     O1933   2.390       .  S
Zr1930     O1934   2.386       .  S
O1931      H1968   0.990       .  S
O1932      H1963   0.991       .  S
O1932      H1977   0.990       .  S
O1934      H1960   0.964       .  S
O1935     Zr1945   2.382       .  S
O1936     Zr1945   2.387       .  S
O1936      H1961   0.965       .  S
C1937      C2157   1.488   1_556  S
C1938      C2177   1.480       .  S
C1939      C2557   1.479       .  S
O1940      H1976   0.990       .  S
O1941      C1943   1.287       .  A
O1942      C1943   1.288       .  A
C1943      C2277   1.494       .  S
O1944     Zr1945   2.440       .  S
O1944      H1973   0.991       .  S
Zr1945     O1948   2.436       .  S
Zr1945     O1949   2.441       .  S
Zr1945     O1950   2.393       .  S
O1946      C1951   1.288       .  A
O1947      H1964   0.990       .  S
O1947      H1979   0.990       .  S
O1948      H1965   0.990       .  S
O1949      H1969   0.990       .  S
O1949      H1978   0.990       .  S
O1950      C1951   1.276       .  A
C1951      C2147   1.486       .  S
O1952      H1971   0.990       .  S
O1952      H1975   0.990       .  S
O1953      H1967   0.990       .  S
O1953      H1974   0.990       .  S
O1954      C1958   1.291       .  A
O1955      C1958   1.280       .  A
O1956      H1966   0.990       .  S
O1957      H1970   0.990       .  S
C1958      C2137   1.490       .  S
Zr1981     O1982   2.442       .  S
Zr1981     O1983   2.453       .  S
Zr1981     O1984   2.451       .  S
Zr1981     O1987   2.467       .  S
Zr1981     O1989   2.391       .  S
Zr1981     O1990   2.387       .  S
Zr1981     O1991   2.419       .  S
Zr1981     O1992   2.401       .  S
O1982      H2038   0.990       .  S
O1982      H2046   0.990       .  S
O1983      C2003   1.287       .  A
O1984      C2005   1.286       .  A
O1985     Zr1995   2.411       .  S
O1985      C2004   1.281       .  A
O1986     Zr1994   2.438       .  S
O1986      C2005   1.287       .  A
O1987      C2004   1.290       .  A
O1988     Zr1996   2.397       .  S
O1988      C2003   1.276       .  A
O1989     Zr1994   2.400       .  S
O1989     Zr1996   2.388       .  S
O1990     Zr1995   2.391       .  S
O1990     Zr1996   2.383       .  S
O1990      H2025   0.966       .  S
O1991     Zr1994   2.398       .  S
O1991     Zr2011   2.388       .  S
O1991      H2028   0.964       .  S
O1992     Zr1995   2.380       .  S
O1992     Zr2011   2.388       .  S
Zr1993     O2018   2.442       .  S
Zr1993     O2012   2.456       .  S
Zr1993     O2020   2.467       .  S
Zr1993     O2008   2.455       .  S
Zr1993     O1999   2.401       .  S
Zr1993     O2000   2.416       .  S
Zr1993     O2001   2.387       .  S
Zr1993     O2002   2.389       .  S
Zr1994     O2013   2.437       .  S
Zr1994     O2006   2.435       .  S
Zr1994     O2007   2.425       .  S
Zr1994     O2000   2.400       .  S
Zr1994     O2001   2.394       .  S
Zr1995     O1997   2.435       .  S
Zr1995     O2019   2.438       .  S
Zr1995     O2021   2.399       .  S
Zr1995     O1999   2.393       .  S
Zr1995     O2002   2.391       .  S
Zr1996     O2022   2.433       .  S
Zr1996     O2023   2.437       .  S
Zr1996     O1998   2.439       .  S
Zr1996     O1999   2.384       .  S
Zr1996     O2000   2.380       .  S
O1997      H2034   0.990       .  S
O1998      H2029   0.990       .  S
O1998      H2043   0.990       .  S
O2000      H2026   0.964       .  S
O2001     Zr2011   2.380       .  S
O2002     Zr2011   2.380       .  S
O2002      H2027   0.966       .  S
C2003      C2114   1.485   1_554  S
C2004      C2254   1.491       .  S
C2005      C2637   1.486       .  S
O2006      H2042   0.990       .  S
O2007      C2009   1.285       .  A
O2008      C2009   1.288       .  A
C2009      C2334   1.488       .  S
O2010     Zr2011   2.439       .  S
O2010      H2039   0.990       .  S
Zr2011     O2014   2.437       .  S
Zr2011     O2015   2.440       .  S
Zr2011     O2016   2.404       .  S
O2012      C2017   1.288       .  A
O2013      H2030   0.990       .  S
O2013      H2045   0.990       .  S
O2014      H2031   0.990       .  S
O2015      H2035   0.990       .  S
O2015      H2044   0.990       .  S
O2016      C2017   1.279       .  A
C2017      C2124   1.489       .  S
O2018      H2037   0.991       .  S
O2018      H2041   0.990       .  S
O2019      H2033   0.990       .  S
O2019      H2040   0.990       .  S
O2020      C2024   1.289       .  A
O2021      C2024   1.279       .  A
O2022      H2032   0.990       .  S
O2023      H2036   0.990       .  S
C2024      C2164   1.484       .  S
Zr2047     O2048   2.440       .  S
Zr2047     O2049   2.462       .  S
Zr2047     O2050   2.466       .  S
Zr2047     O2053   2.455       .  S
Zr2047     O2055   2.385       .  S
Zr2047     O2056   2.390       .  S
Zr2047     O2057   2.418       .  S
Zr2047     O2058   2.400       .  S
O2048      H2104   0.990       .  S
O2048      H2112   0.990       .  S
O2049      C2069   1.288       .  A
O2050      C2071   1.290       .  A
O2051     Zr2061   2.408       .  S
O2051      C2070   1.282       .  A
O2052     Zr2060   2.431       .  S
O2052      C2071   1.285       .  A
O2053      C2070   1.288       .  A
O2054     Zr2062   2.394       .  S
O2054      C2069   1.276       .  A
O2055     Zr2060   2.399       .  S
O2055     Zr2062   2.384       .  S
O2056     Zr2061   2.394       .  S
O2056     Zr2062   2.377       .  S
O2056      H2091   0.966       .  S
O2057     Zr2060   2.400       .  S
O2057     Zr2077   2.382       .  S
O2057      H2094   0.964       .  S
O2058     Zr2061   2.383       .  S
O2058     Zr2077   2.377       .  S
Zr2059     O2084   2.443       .  S
Zr2059     O2078   2.465       .  S
Zr2059     O2086   2.461       .  S
Zr2059     O2074   2.447       .  S
Zr2059     O2065   2.403       .  S
Zr2059     O2066   2.421       .  S
Zr2059     O2067   2.385       .  S
Zr2059     O2068   2.387       .  S
Zr2060     O2079   2.436       .  S
Zr2060     O2072   2.435       .  S
Zr2060     O2073   2.432       .  S
Zr2060     O2066   2.399       .  S
Zr2060     O2067   2.394       .  S
Zr2061     O2063   2.436       .  S
Zr2061     O2085   2.436       .  S
Zr2061     O2087   2.419       .  S
Zr2061     O2065   2.384       .  S
Zr2061     O2068   2.389       .  S
Zr2062     O2088   2.435       .  S
Zr2062     O2089   2.437       .  S
Zr2062     O2064   2.438       .  S
Zr2062     O2065   2.389       .  S
Zr2062     O2066   2.380       .  S
O2063      H2100   0.990       .  S
O2064      H2095   0.990       .  S
O2064      H2109   0.990       .  S
O2066      H2092   0.964       .  S
O2067     Zr2077   2.384       .  S
O2068     Zr2077   2.384       .  S
O2068      H2093   0.966       .  S
C2069      C2127   1.488       .  S
C2070      C2217   1.484       .  S
C2071      C2617   1.490       .  S
O2072      H2108   0.990       .  S
O2073      C2075   1.286       .  A
O2074      C2075   1.286       .  A
C2075      C2317   1.481       .  S
O2076     Zr2077   2.439       .  S
O2076      H2105   0.990       .  S
Zr2077     O2080   2.437       .  S
Zr2077     O2081   2.440       .  S
Zr2077     O2082   2.388       .  S
O2078      C2083   1.289       .  A
O2079      H2096   0.990       .  S
O2079      H2111   0.990       .  S
O2080      H2097   0.990       .  S
O2081      H2101   0.990       .  S
O2081      H2110   0.990       .  S
O2082      C2083   1.275       .  A
C2083      C2117   1.483       .  S
O2084      H2103   0.991       .  S
O2084      H2107   0.990       .  S
O2085      H2099   0.990       .  S
O2085      H2106   0.990       .  S
O2086      C2090   1.288       .  A
O2087      C2090   1.284       .  A
O2088      H2098   0.990       .  S
O2089      H2102   0.990       .  S
C2090      C2134   1.486       .  S
C2113      C2114   1.403       .  A
C2113      C2118   1.396       .  A
C2113      H2120   1.083       .  S
C2114      C2115   1.413       .  A
C2115      C2116   1.399       .  A
C2115      F2122   1.358       .  S
C2116      C2117   1.402       .  A
C2116      H2121   1.083       .  S
C2117      C2118   1.412       .  A
C2118      F2119   1.358       .  S
C2123      C2124   1.411       .  A
C2123      C2128   1.400       .  A
C2123      H2130   1.083       .  S
C2124      C2125   1.406       .  A
C2125      C2126   1.398       .  A
C2125      F2132   1.358       .  S
C2126      C2127   1.411       .  A
C2126      H2131   1.083       .  S
C2127      C2128   1.405       .  A
C2128      F2129   1.357       .  S
C2133      C2134   1.403       .  A
C2133      C2138   1.393       .  A
C2133      H2140   1.084       .  S
C2134      C2135   1.410       .  A
C2135      C2136   1.408       .  A
C2135      F2142   1.357       .  S
C2136      C2137   1.409       .  A
C2136      H2141   1.083       .  S
C2137      C2138   1.411       .  A
C2138      F2139   1.358       .  S
C2143      C2144   1.404       .  A
C2143      C2148   1.399       .  A
C2143      H2150   1.083       .  S
C2144      C2145   1.415       .  A
C2145      C2146   1.396       .  A
C2145      F2152   1.358       .  S
C2146      C2147   1.402       .  A
C2146      H2151   1.083       .  S
C2147      C2148   1.414       .  A
C2148      F2149   1.358       .  S
C2153      C2154   1.409       .  A
C2153      C2158   1.395       .  A
C2153      H2160   1.083       .  S
C2154      C2155   1.405       .  A
C2155      C2156   1.400       .  A
C2155      F2162   1.358       .  S
C2156      C2157   1.412       .  A
C2156      H2161   1.083       .  S
C2157      C2158   1.406       .  A
C2158      F2159   1.357       .  S
C2163      C2164   1.406       .  A
C2163      C2168   1.393       .  A
C2163      H2170   1.083       .  S
C2164      C2165   1.409       .  A
C2165      C2166   1.404       .  A
C2165      F2172   1.357       .  S
C2166      C2167   1.406       .  A
C2166      H2171   1.083       .  S
C2167      C2168   1.408       .  A
C2168      F2169   1.358       .  S
C2173      C2174   1.405       .  A
C2173      C2178   1.402       .  A
C2173      H2180   1.083       .  S
C2174      C2175   1.404       .  A
C2175      C2176   1.389       .  A
C2175      F2182   1.358       .  S
C2176      C2177   1.406       .  A
C2176      H2181   1.083       .  S
C2177      C2178   1.409       .  A
C2178      F2179   1.357       .  S
C2183      C2184   1.410       .  A
C2183      C2188   1.398       .  A
C2183      H2190   1.083       .  S
C2184      C2185   1.407       .  A
C2185      C2186   1.398       .  A
C2185      F2192   1.358       .  S
C2186      C2187   1.411       .  A
C2186      H2191   1.083       .  S
C2187      C2188   1.406       .  A
C2188      F2189   1.357       .  S
C2193      C2194   1.401       .  A
C2193      C2198   1.396       .  A
C2193      H2200   1.083       .  S
C2194      C2195   1.412       .  A
C2195      C2196   1.398       .  A
C2195      F2202   1.358       .  S
C2196      C2197   1.403       .  A
C2196      H2201   1.083       .  S
C2197      C2198   1.415       .  A
C2198      F2199   1.358       .  S
C2203      C2204   1.409       .  A
C2203      C2208   1.404       .  A
C2203      H2210   1.083       .  S
C2204      C2205   1.413       .  A
C2205      C2206   1.392       .  A
C2205      F2212   1.358       .  S
C2206      C2207   1.401       .  A
C2206      H2211   1.084       .  S
C2207      C2208   1.406       .  A
C2208      F2209   1.357       .  S
C2213      C2214   1.404       .  A
C2213      C2218   1.402       .  A
C2213      H2220   1.083       .  S
C2214      C2215   1.405       .  A
C2215      C2216   1.392       .  A
C2215      F2222   1.358       .  S
C2216      C2217   1.406       .  A
C2216      H2221   1.083       .  S
C2217      C2218   1.411       .  A
C2218      F2219   1.357       .  S
C2223      C2224   1.406       .  A
C2223      C2228   1.394       .  A
C2223      H2230   1.083       .  S
C2224      C2225   1.408       .  A
C2225      C2226   1.402       .  A
C2225      F2232   1.357       .  S
C2226      C2227   1.406       .  A
C2226      H2231   1.083       .  S
C2227      C2228   1.408       .  A
C2228      F2229   1.358       .  S
C2233      C2234   1.410       .  A
C2233      C2238   1.398       .  A
C2233      H2240   1.083       .  S
C2234      C2235   1.406       .  A
C2235      C2236   1.396       .  A
C2235      F2242   1.357       .  S
C2236      C2237   1.410       .  A
C2236      H2241   1.083       .  S
C2237      C2238   1.407       .  A
C2238      F2239   1.357       .  S
C2243      C2244   1.411       .  A
C2243      C2248   1.399       .  A
C2243      H2250   1.083       .  S
C2244      C2245   1.406       .  A
C2245      C2246   1.398       .  A
C2245      F2252   1.357       .  S
C2246      C2247   1.411       .  A
C2246      H2251   1.083       .  S
C2247      C2248   1.406       .  A
C2248      F2249   1.357       .  S
C2253      C2254   1.409       .  A
C2253      C2258   1.407       .  A
C2253      H2260   1.083       .  S
C2254      C2255   1.412       .  A
C2255      C2256   1.393       .  A
C2255      F2262   1.358       .  S
C2256      C2257   1.401       .  A
C2256      H2261   1.084       .  S
C2257      C2258   1.408       .  A
C2258      F2259   1.357       .  S
C2263      C2264   1.406   1_554  A
C2263      C2268   1.406   1_554  A
C2263      H2270   1.083       .  S
C2264      C2265   1.405       .  A
C2265      C2266   1.397       .  A
C2265      F2272   1.358       .  S
C2266      C2267   1.410       .  A
C2266      H2271   1.083       .  S
C2267      C2268   1.412       .  A
C2268      F2269   1.357   1_556  S
C2273      C2274   1.407       .  A
C2273      C2278   1.406       .  A
C2273      H2280   1.083       .  S
C2274      C2275   1.412       .  A
C2275      C2276   1.398       .  A
C2275      F2282   1.358       .  S
C2276      C2277   1.406       .  A
C2276      H2281   1.083       .  S
C2277      C2278   1.413       .  A
C2278      F2279   1.357       .  S
C2283      C2284   1.406       .  A
C2283      C2288   1.403       .  A
C2283      H2290   1.083       .  S
C2284      C2285   1.410       .  A
C2285      C2286   1.395       .  A
C2285      F2292   1.358       .  S
C2286      C2287   1.405       .  A
C2286      H2291   1.083       .  S
C2287      C2288   1.411       .  A
C2288      F2289   1.357       .  S
C2293      C2294   1.402       .  A
C2293      C2298   1.397       .  A
C2293      H2300   1.083       .  S
C2294      C2295   1.414       .  A
C2295      C2296   1.396       .  A
C2295      F2302   1.358       .  S
C2296      C2297   1.401       .  A
C2296      H2301   1.083       .  S
C2297      C2298   1.416       .  A
C2298      F2299   1.358       .  S
C2303      C2304   1.405       .  A
C2303      C2308   1.399       .  A
C2303      H2310   1.083       .  S
C2304      C2305   1.413       .  A
C2305      C2306   1.397       .  A
C2305      F2312   1.357       .  S
C2306      C2307   1.404       .  A
C2306      H2311   1.083       .  S
C2307      C2308   1.413       .  A
C2308      F2309   1.358       .  S
C2313      C2314   1.406       .  A
C2313      C2318   1.395       .  A
C2313      H2320   1.083       .  S
C2314      C2315   1.407       .  A
C2315      C2316   1.402       .  A
C2315      F2322   1.358       .  S
C2316      C2317   1.408       .  A
C2316      H2321   1.083       .  S
C2317      C2318   1.405       .  A
C2318      F2319   1.357       .  S
C2323      C2324   1.402       .  A
C2323      C2328   1.396       .  A
C2323      H2330   1.084       .  S
C2324      C2325   1.407       .  A
C2325      C2326   1.403       .  A
C2325      F2332   1.357       .  S
C2326      C2327   1.408       .  A
C2326      H2331   1.083       .  S
C2327      C2328   1.415       .  A
C2328      F2329   1.358       .  S
C2333      C2334   1.405       .  A
C2333      C2338   1.394       .  A
C2333      H2340   1.083       .  S
C2334      C2335   1.411       .  A
C2335      C2336   1.403       .  A
C2335      F2342   1.357       .  S
C2336      C2337   1.407       .  A
C2336      H2341   1.083       .  S
C2337      C2338   1.410       .  A
C2338      F2339   1.358       .  S
C2343      C2344   1.403       .  A
C2343      C2348   1.400       .  A
C2343      H2350   1.083       .  S
C2344      C2345   1.414       .  A
C2345      C2346   1.397       .  A
C2345      F2352   1.357       .  S
C2346      C2347   1.401       .  A
C2346      H2351   1.083       .  S
C2347      C2348   1.415       .  A
C2348      F2349   1.358       .  S
C2353      C2354   1.414       .  A
C2353      C2358   1.399       .  A
C2353      H2360   1.083       .  S
C2354      C2355   1.403       .  A
C2355      C2356   1.395       .  A
C2355      F2362   1.358       .  S
C2356      C2357   1.414       .  A
C2356      H2361   1.083       .  S
C2357      C2358   1.403       .  A
C2358      F2359   1.357       .  S
C2363      C2364   1.408       .  A
C2363      C2368   1.397       .  A
C2363      H2370   1.083       .  S
C2364      C2365   1.413       .  A
C2365      C2366   1.410       .  A
C2365      F2372   1.357       .  S
C2366      C2367   1.408       .  A
C2366      H2371   1.083       .  S
C2367      C2368   1.407       .  A
C2368      F2369   1.358       .  S
C2373      C2374   1.407       .  A
C2373      C2378   1.405   1_655  A
C2373      H2380   1.083       .  S
C2374      C2375   1.410       .  A
C2375      C2376   1.397   1_655  A
C2375      F2382   1.358       .  S
C2376      C2377   1.405       .  A
C2376      H2381   1.083       .  S
C2377      C2378   1.410       .  A
C2378      F2379   1.357       .  S
C2383      C2384   1.405       .  A
C2383      C2388   1.394       .  A
C2383      H2390   1.083       .  S
C2384      C2385   1.412       .  A
C2385      C2386   1.407       .  A
C2385      F2392   1.357       .  S
C2386      C2387   1.407       .  A
C2386      H2391   1.083       .  S
C2387      C2388   1.410       .  A
C2388      F2389   1.358       .  S
C2393      C2394   1.407       .  A
C2393      C2398   1.402   1_655  A
C2393      H2400   1.083       .  S
C2394      C2395   1.411       .  A
C2395      C2396   1.396   1_655  A
C2395      F2402   1.358       .  S
C2396      C2397   1.403       .  A
C2396      H2401   1.084       .  S
C2397      C2398   1.409       .  A
C2398      F2399   1.357       .  S
C2403      C2404   1.401       .  A
C2403      C2408   1.395       .  A
C2403      H2410   1.083       .  S
C2404      C2405   1.414       .  A
C2405      C2406   1.397       .  A
C2405      F2412   1.358       .  S
C2406      C2407   1.402       .  A
C2406      H2411   1.083       .  S
C2407      C2408   1.414       .  A
C2408      F2409   1.358       .  S
C2413      C2414   1.411       .  A
C2413      C2418   1.401       .  A
C2413      H2420   1.083       .  S
C2414      C2415   1.407       .  A
C2415      C2416   1.400       .  A
C2415      F2422   1.358       .  S
C2416      C2417   1.412       .  A
C2416      H2421   1.083       .  S
C2417      C2418   1.407       .  A
C2418      F2419   1.357       .  S
C2423      C2424   1.406       .  A
C2423      C2428   1.404       .  A
C2423      H2430   1.083       .  S
C2424      C2425   1.406       .  A
C2425      C2426   1.397       .  A
C2425      F2432   1.358       .  S
C2426      C2427   1.410       .  A
C2426      H2431   1.083       .  S
C2427      C2428   1.411       .  A
C2428      F2429   1.356       .  S
C2433      C2434   1.405       .  A
C2433      C2438   1.393   1_655  A
C2433      H2440   1.083   1_554  S
C2434      C2435   1.411       .  A
C2435      C2436   1.406   1_655  A
C2435      F2442   1.357       .  S
C2436      C2437   1.408       .  A
C2436      H2441   1.083       .  S
C2437      C2438   1.410       .  A
C2438      F2439   1.358   1_554  S
C2443      C2444   1.406       .  A
C2443      C2448   1.405       .  A
C2443      H2450   1.083       .  S
C2444      C2445   1.409       .  A
C2445      C2446   1.399       .  A
C2445      F2452   1.358       .  S
C2446      C2447   1.407       .  A
C2446      H2451   1.083       .  S
C2447      C2448   1.410       .  A
C2448      F2449   1.357       .  S
C2453      C2454   1.407       .  A
C2453      C2458   1.402       .  A
C2453      H2460   1.083       .  S
C2454      C2455   1.410       .  A
C2455      C2456   1.394       .  A
C2455      F2462   1.358       .  S
C2456      C2457   1.405       .  A
C2456      H2461   1.084       .  S
C2457      C2458   1.407       .  A
C2458      F2459   1.357       .  S
C2463      C2464   1.406       .  A
C2463      C2468   1.406   1_655  A
C2463      H2470   1.083       .  S
C2464      C2465   1.411       .  A
C2465      C2466   1.396   1_655  A
C2465      F2472   1.358       .  S
C2466      C2467   1.404       .  A
C2466      H2471   1.084       .  S
C2467      C2468   1.411       .  A
C2468      F2469   1.357       .  S
C2473      C2474   1.413       .  A
C2473      C2478   1.400       .  A
C2473      H2480   1.083       .  S
C2474      C2475   1.404       .  A
C2475      C2476   1.397       .  A
C2475      F2482   1.358       .  S
C2476      C2477   1.413       .  A
C2476      H2481   1.083       .  S
C2477      C2478   1.406       .  A
C2478      F2479   1.357       .  S
C2483      C2484   1.410       .  A
C2483      C2488   1.397       .  A
C2483      H2490   1.083       .  S
C2484      C2485   1.405       .  A
C2485      C2486   1.397       .  A
C2485      F2492   1.357       .  S
C2486      C2487   1.409       .  A
C2486      H2491   1.083       .  S
C2487      C2488   1.405       .  A
C2488      F2489   1.358       .  S
C2493      C2494   1.405       .  A
C2493      C2498   1.393       .  A
C2493      H2500   1.083       .  S
C2494      C2495   1.410       .  A
C2495      C2496   1.403       .  A
C2495      F2502   1.357       .  S
C2496      C2497   1.408       .  A
C2496      H2501   1.083       .  S
C2497      C2498   1.408       .  A
C2498      F2499   1.358       .  S
C2503      C2504   1.407       .  A
C2503      C2508   1.397       .  A
C2503      H2510   1.084       .  S
C2504      C2505   1.408       .  A
C2505      C2506   1.402       .  A
C2505      F2512   1.357       .  S
C2506      C2507   1.405       .  A
C2506      H2511   1.083       .  S
C2507      C2508   1.409       .  A
C2508      F2509   1.358       .  S
C2513      C2514   1.409       .  A
C2513      C2518   1.405       .  A
C2513      H2520   1.083       .  S
C2514      C2515   1.407       .  A
C2515      C2516   1.396       .  A
C2515      F2522   1.358       .  S
C2516      C2517   1.408       .  A
C2516      H2521   1.083       .  S
C2517      C2518   1.410       .  A
C2518      F2519   1.357       .  S
C2523      C2524   1.407       .  A
C2523      C2528   1.397       .  A
C2523      H2530   1.083       .  S
C2524      C2525   1.406       .  A
C2525      C2526   1.395       .  A
C2525      F2532   1.357       .  S
C2526      C2527   1.405       .  A
C2526      H2531   1.084       .  S
C2527      C2528   1.406       .  A
C2528      F2529   1.358       .  S
C2533      C2534   1.413       .  A
C2533      C2538   1.396       .  A
C2533      H2540   1.083       .  S
C2534      C2535   1.404       .  A
C2535      C2536   1.400       .  A
C2535      F2542   1.357       .  S
C2536      C2537   1.413       .  A
C2536      H2541   1.083       .  S
C2537      C2538   1.405       .  A
C2538      F2539   1.357       .  S
C2543      C2544   1.411       .  A
C2543      C2548   1.394       .  A
C2543      H2550   1.083       .  S
C2544      C2545   1.405       .  A
C2545      C2546   1.397       .  A
C2545      F2552   1.357       .  S
C2546      C2547   1.412       .  A
C2546      H2551   1.083       .  S
C2547      C2548   1.404       .  A
C2548      F2549   1.358       .  S
C2553      C2554   1.405       .  A
C2553      C2558   1.396       .  A
C2553      H2560   1.083       .  S
C2554      C2555   1.407       .  A
C2555      C2556   1.398       .  A
C2555      F2562   1.358       .  S
C2556      C2557   1.407       .  A
C2556      H2561   1.083       .  S
C2557      C2558   1.406       .  A
C2558      F2559   1.357       .  S
C2563      C2564   1.407       .  A
C2563      C2568   1.404       .  A
C2563      H2570   1.083       .  S
C2564      C2565   1.407       .  A
C2565      C2566   1.397       .  A
C2565      F2572   1.358       .  S
C2566      C2567   1.409       .  A
C2566      H2571   1.083       .  S
C2567      C2568   1.409       .  A
C2568      F2569   1.357       .  S
C2573      C2574   1.407       .  A
C2573      C2578   1.402       .  A
C2573      H2580   1.083       .  S
C2574      C2575   1.409       .  A
C2575      C2576   1.396       .  A
C2575      F2582   1.358       .  S
C2576      C2577   1.406       .  A
C2576      H2581   1.084       .  S
C2577      C2578   1.409       .  A
C2578      F2579   1.357       .  S
C2583      C2584   1.410       .  A
C2583      C2588   1.397       .  A
C2583      H2590   1.083       .  S
C2584      C2585   1.407       .  A
C2585      C2586   1.396       .  A
C2585      F2592   1.358       .  S
C2586      C2587   1.410       .  A
C2586      H2591   1.083       .  S
C2587      C2588   1.406       .  A
C2588      F2589   1.357       .  S
C2593      C2594   1.403       .  A
C2593      C2598   1.398       .  A
C2593      H2600   1.083       .  S
C2594      C2595   1.415       .  A
C2595      C2596   1.397       .  A
C2595      F2602   1.358       .  S
C2596      C2597   1.402       .  A
C2596      H2601   1.083       .  S
C2597      C2598   1.414       .  A
C2598      F2599   1.357       .  S
C2603      C2604   1.404       .  A
C2603      C2608   1.394       .  A
C2603      H2610   1.084       .  S
C2604      C2605   1.408       .  A
C2605      C2606   1.403       .  A
C2605      F2612   1.357       .  S
C2606      C2607   1.408       .  A
C2606      H2611   1.083       .  S
C2607      C2608   1.410       .  A
C2608      F2609   1.358       .  S
C2613      C2614   1.405       .  A
C2613      C2618   1.403       .  A
C2613      H2620   1.083       .  S
C2614      C2615   1.409       .  A
C2615      C2616   1.399       .  A
C2615      F2622   1.358       .  S
C2616      C2617   1.407       .  A
C2616      H2621   1.083       .  S
C2617      C2618   1.411       .  A
C2618      F2619   1.357       .  S
C2623      C2624   1.412       .  A
C2623      C2628   1.397   1_565  A
C2623      H2630   1.083       .  S
C2624      C2625   1.412       .  A
C2625      C2626   1.406   1_565  A
C2625      F2632   1.356       .  S
C2626      C2627   1.406       .  A
C2626      H2631   1.083       .  S
C2627      C2628   1.403       .  A
C2628      F2629   1.358       .  S
C2633      C2634   1.405       .  A
C2633      C2638   1.403       .  A
C2633      H2640   1.083       .  S
C2634      C2635   1.411       .  A
C2635      C2636   1.397       .  A
C2635      F2642   1.358       .  S
C2636      C2637   1.403       .  A
C2636      H2641   1.083       .  S
C2637      C2638   1.412       .  A
C2638      F2639   1.357       .  S
C2643      C2644   1.402       .  A
C2643      C2648   1.398       .  A
C2643      H2650   1.083       .  S
C2644      C2645   1.416       .  A
C2645      C2646   1.395       .  A
C2645      F2652   1.357       .  S
C2646      C2647   1.400       .  A
C2646      H2651   1.083       .  S
C2647      C2648   1.413       .  A
C2648      F2649   1.358       .  S
C2653      C2654   1.411       .  A
C2653      C2658   1.401       .  A
C2653      H2660   1.083       .  S
C2654      C2655   1.407       .  A
C2655      C2656   1.398       .  A
C2655      F2662   1.357       .  S
C2656      C2657   1.410       .  A
C2656      H2661   1.083       .  S
C2657      C2658   1.407       .  A
C2658      F2659   1.358       .  S
C2663      C2664   1.408       .  A
C2663      C2668   1.408   1_545  A
C2663      H2670   1.083       .  S
C2664      C2665   1.412       .  A
C2665      C2666   1.396   1_545  A
C2665      F2672   1.358       .  S
C2666      C2667   1.404       .  A
C2666      H2671   1.084       .  S
C2667      C2668   1.410       .  A
C2668      F2669   1.357       .  S
C2673      C2674   1.407       .  A
C2673      C2678   1.404       .  A
C2673      H2680   1.083       .  S
C2674      C2675   1.412       .  A
C2675      C2676   1.398       .  A
C2675      F2682   1.358       .  S
C2676      C2677   1.406       .  A
C2676      H2681   1.083       .  S
C2677      C2678   1.411       .  A
C2678      F2679   1.357       .  S
C2683      C2684   1.406       .  A
C2683      C2688   1.403   1_565  A
C2683      H2690   1.083       .  S
C2684      C2685   1.406       .  A
C2685      C2686   1.398   1_565  A
C2685      F2692   1.358       .  S
C2686      C2687   1.410       .  A
C2686      H2691   1.083       .  S
C2687      C2688   1.410       .  A
C2688      F2689   1.357       .  S
C2693      C2694   1.403       .  A
C2693      C2698   1.394       .  A
C2693      H2700   1.084       .  S
C2694      C2695   1.408       .  A
C2695      C2696   1.404       .  A
C2695      F2702   1.357       .  S
C2696      C2697   1.408       .  A
C2696      H2701   1.083       .  S
C2697      C2698   1.410       .  A
C2698      F2699   1.358       .  S
C2703      C2704   1.405       .  A
C2703      C2708   1.402       .  A
C2703      H2710   1.083       .  S
C2704      C2705   1.409       .  A
C2705      C2706   1.400       .  A
C2705      F2712   1.358       .  S
C2706      C2707   1.406       .  A
C2706      H2711   1.083       .  S
C2707      C2708   1.410       .  A
C2708      F2709   1.357       .  S
C2713      C2714   1.412       .  A
C2713      C2718   1.400       .  A
C2713      H2720   1.083       .  S
C2714      C2715   1.405       .  A
C2715      C2716   1.397       .  A
C2715      F2722   1.358       .  S
C2716      C2717   1.411       .  A
C2716      H2721   1.083       .  S
C2717      C2718   1.406       .  A
C2718      F2719   1.357       .  S
C2723      C2724   1.401       .  A
C2723      C2728   1.398       .  A
C2723      H2730   1.083       .  S
C2724      C2725   1.414       .  A
C2725      C2726   1.398       .  A
C2725      F2732   1.358       .  S
C2726      C2727   1.402       .  A
C2726      H2731   1.083       .  S
C2727      C2728   1.415       .  A
C2728      F2729   1.357       .  S
C2733      C2734   1.405       .  A
C2733      C2738   1.405   1_565  A
C2733      H2740   1.083       .  S
C2734      C2735   1.405   1_554  A
C2735      C2736   1.397   1_565  A
C2735      F2742   1.358       .  S
C2736      C2737   1.409   1_556  A
C2736      H2741   1.083       .  S
C2737      C2738   1.412       .  A
C2738      F2739   1.357       .  S
C2743      C2744   1.408       .  A
C2743      C2748   1.405       .  A
C2743      H2750   1.083       .  S
C2744      C2745   1.407       .  A
C2745      C2746   1.396       .  A
C2745      F2752   1.358       .  S
C2746      C2747   1.408       .  A
C2746      H2751   1.083       .  S
C2747      C2748   1.409       .  A
C2748      F2749   1.357       .  S
C2753      C2754   1.405       .  A
C2753      C2758   1.402       .  A
C2753      H2760   1.083       .  S
C2754      C2755   1.410       .  A
C2755      C2756   1.397       .  A
C2755      F2762   1.358       .  S
C2756      C2757   1.405       .  A
C2756      H2761   1.083       .  S
C2757      C2758   1.411       .  A
C2758      F2759   1.357       .  S
C2763      C2764   1.406       .  A
C2763      C2768   1.395       .  A
C2763      H2770   1.083       .  S
C2764      C2765   1.408       .  A
C2765      C2766   1.402       .  A
C2765      F2772   1.358       .  S
C2766      C2767   1.408       .  A
C2766      H2771   1.083       .  S
C2767      C2768   1.406       .  A
C2768      F2769   1.358       .  S
C2773      C2774   1.404       .  A
C2773      C2778   1.396       .  A
C2773      H2780   1.084       .  S
C2774      C2775   1.410       .  A
C2775      C2776   1.403       .  A
C2775      F2782   1.357       .  S
C2776      C2777   1.406       .  A
C2776      H2781   1.083       .  S
C2777      C2778   1.411       .  A
C2778      F2779   1.358       .  S
C2783      C2784   1.408       .  A
C2783      C2788   1.406       .  A
C2783      H2790   1.083       .  S
C2784      C2785   1.407       .  A
C2785      C2786   1.396       .  A
C2785      F2792   1.358       .  S
C2786      C2787   1.407       .  A
C2786      H2791   1.083       .  S
C2787      C2788   1.411       .  A
C2788      F2789   1.357       .  S
C2793      C2794   1.402       .  A
C2793      C2798   1.395       .  A
C2793      H2800   1.083       .  S
C2794      C2795   1.414       .  A
C2795      C2796   1.393       .  A
C2795      F2802   1.358       .  S
C2796      C2797   1.401       .  A
C2796      H2801   1.083       .  S
C2797      C2798   1.413       .  A
C2798      F2799   1.358       .  S
C2803      C2804   1.412       .  A
C2803      C2808   1.401       .  A
C2803      H2810   1.083       .  S
C2804      C2805   1.406       .  A
C2805      C2806   1.401       .  A
C2805      F2812   1.357       .  S
C2806      C2807   1.411       .  A
C2806      H2811   1.083       .  S
C2807      C2808   1.407       .  A
C2808      F2809   1.358       .  S
C2813      C2814   1.405       .  A
C2813      C2818   1.394   1_655  A
C2813      H2820   1.083   1_554  S
C2814      C2815   1.412       .  A
C2815      C2816   1.407   1_655  A
C2815      F2822   1.357       .  S
C2816      C2817   1.407       .  A
C2816      H2821   1.083       .  S
C2817      C2818   1.411       .  A
C2818      F2819   1.358   1_554  S
C2823      C2824   1.407       .  A
C2823      C2828   1.395       .  A
C2823      H2830   1.083       .  S
C2824      C2825   1.408       .  A
C2825      C2826   1.401       .  A
C2825      F2832   1.357       .  S
C2826      C2827   1.407       .  A
C2826      H2831   1.083       .  S
C2827      C2828   1.407       .  A
C2828      F2829   1.358       .  S
C2833      C2834   1.407       .  A
C2833      C2838   1.403       .  A
C2833      H2840   1.083       .  S
C2834      C2835   1.408       .  A
C2835      C2836   1.392       .  A
C2835      F2842   1.358       .  S
C2836      C2837   1.404       .  A
C2836      H2841   1.084       .  S
C2837      C2838   1.408       .  A
C2838      F2839   1.357       .  S
C2843      C2844   1.403       .  A
C2843      C2848   1.399   1_655  A
C2843      H2850   1.083       .  S
C2844      C2845   1.412       .  A
C2845      C2846   1.401   1_655  A
C2845      F2852   1.358       .  S
C2846      C2847   1.403       .  A
C2846      H2851   1.083       .  S
C2847      C2848   1.411       .  A
C2848      F2849   1.358       .  S
C2853      C2854   1.408       .  A
C2853      C2858   1.403       .  A
C2853      H2860   1.083       .  S
C2854      C2855   1.407       .  A
C2855      C2856   1.395       .  A
C2855      F2862   1.358       .  S
C2856      C2857   1.406       .  A
C2856      H2861   1.084       .  S
C2857      C2858   1.408       .  A
C2858      F2859   1.357       .  S
C2863      C2864   1.410       .  A
C2863      C2868   1.399       .  A
C2863      H2870   1.083       .  S
C2864      C2865   1.408       .  A
C2865      C2866   1.398       .  A
C2865      F2872   1.357       .  S
C2866      C2867   1.409       .  A
C2866      H2871   1.083       .  S
C2867      C2868   1.407       .  A
C2868      F2869   1.358       .  S
C2873      C2874   1.401       .  A
C2873      C2878   1.395       .  A
C2873      H2880   1.083       .  S
C2874      C2875   1.415       .  A
C2875      C2876   1.396       .  A
C2875      F2882   1.358       .  S
C2876      C2877   1.402       .  A
C2876      H2881   1.083       .  S
C2877      C2878   1.416       .  A
C2878      F2879   1.358       .  S
C2883      C2884   1.407       .  A
C2883      C2888   1.406       .  A
C2883      H2890   1.083       .  S
C2884      C2885   1.408       .  A
C2885      C2886   1.394       .  A
C2885      F2892   1.358       .  S
C2886      C2887   1.406       .  A
C2886      H2891   1.083       .  S
C2887      C2888   1.411       .  A
C2888      F2889   1.357       .  S
C2893      C2894   1.406       .  A
C2893      C2898   1.401       .  A
C2893      H2900   1.083       .  S
C2894      C2895   1.409       .  A
C2895      C2896   1.394       .  A
C2895      F2902   1.358       .  S
C2896      C2897   1.403       .  A
C2896      H2901   1.083       .  S
C2897      C2898   1.410       .  A
C2898      F2899   1.358       .  S
C2903      C2904   1.406       .  A
C2903      C2908   1.398   1_655  A
C2903      H2910   1.084       .  S
C2904      C2905   1.409       .  A
C2905      C2906   1.401   1_655  A
C2905      F2912   1.357       .  S
C2906      C2907   1.405       .  A
C2906      H2911   1.083       .  S
C2907      C2908   1.410       .  A
C2908      F2909   1.358       .  S
C2913      C2914   1.408       .  A
C2913      C2918   1.403   1_565  A
C2913      H2920   1.083       .  S
C2914      C2915   1.412       .  A
C2915      C2916   1.392   1_565  A
C2915      F2922   1.358       .  S
C2916      C2917   1.400       .  A
C2916      H2921   1.084       .  S
C2917      C2918   1.407       .  A
C2918      F2919   1.357       .  S
C2923      C2924   1.403       .  A
C2923      C2928   1.395       .  A
C2923      H2930   1.084       .  S
C2924      C2925   1.411       .  A
C2925      C2926   1.402       .  A
C2925      F2932   1.357       .  S
C2926      C2927   1.404       .  A
C2926      H2931   1.083       .  S
C2927      C2928   1.410       .  A
C2928      F2929   1.358       .  S
C2933      C2934   1.405       .  A
C2933      C2938   1.396   1_655  A
C2933      H2940   1.083       .  S
C2934      C2935   1.411       .  A
C2935      C2936   1.403   1_655  A
C2935      F2942   1.357       .  S
C2936      C2937   1.407       .  A
C2936      H2941   1.083       .  S
C2937      C2938   1.408       .  A
C2938      F2939   1.358       .  S
C2943      C2944   1.403       .  A
C2943      C2948   1.400       .  A
C2943      H2950   1.083       .  S
C2944      C2945   1.413       .  A
C2945      C2946   1.399       .  A
C2945      F2952   1.357       .  S
C2946      C2947   1.403       .  A
C2946      H2951   1.083       .  S
C2947      C2948   1.413       .  A
C2948      F2949   1.358       .  S
C2953      C2954   1.401       .  A
C2953      C2958   1.395       .  A
C2953      H2960   1.083       .  S
C2954      C2955   1.416       .  A
C2955      C2956   1.396       .  A
C2955      F2962   1.358       .  S
C2956      C2957   1.402       .  A
C2956      H2961   1.083       .  S
C2957      C2958   1.414       .  A
C2958      F2959   1.357       .  S
C2963      C2964   1.406       .  A
C2963      C2968   1.402   1_545  A
C2963      H2970   1.083       .  S
C2964      C2965   1.404   1_556  A
C2965      C2966   1.391   1_545  A
C2965      F2972   1.358       .  S
C2966      C2967   1.407       .  A
C2966      H2971   1.083       .  S
C2967      C2968   1.409   1_554  A
C2968      F2969   1.357       .  S
C2973      C2974   1.410       .  A
C2973      C2978   1.407       .  A
C2973      H2980   1.083       .  S
C2974      C2975   1.409       .  A
C2975      C2976   1.395       .  A
C2975      F2982   1.358       .  S
C2976      C2977   1.408       .  A
C2976      H2981   1.083       .  S
C2977      C2978   1.411       .  A
C2978      F2979   1.357       .  S
C2983      C2984   1.404       .  A
C2983      C2988   1.396       .  A
C2983      H2990   1.083       .  S
C2984      C2985   1.413       .  A
C2985      C2986   1.405       .  A
C2985      F2992   1.357       .  S
C2986      C2987   1.407       .  A
C2986      H2991   1.083       .  S
C2987      C2988   1.411       .  A
C2988      F2989   1.358       .  S
C2993      C2994   1.408       .  A
C2993      C2998   1.406   1_565  A
C2993      H3000   1.083       .  S
C2994      C2995   1.405       .  A
C2995      C2996   1.390   1_565  A
C2995      F3002   1.358       .  S
C2996      C2997   1.407       .  A
C2996      H3001   1.083       .  S
C2997      C2998   1.410       .  A
C2998      F2999   1.357       .  S
C3003      C3004   1.405       .  A
C3003      C3008   1.393       .  A
C3003      H3010   1.083       .  S
C3004      C3005   1.409       .  A
C3005      C3006   1.405       .  A
C3005      F3012   1.357       .  S
C3006      C3007   1.407       .  A
C3006      H3011   1.083       .  S
C3007      C3008   1.407       .  A
C3008      F3009   1.358       .  S
C3013      C3014   1.404       .  A
C3013      C3018   1.398       .  A
C3013      H3020   1.083       .  S
C3014      C3015   1.411       .  A
C3015      C3016   1.405       .  A
C3015      F3022   1.357       .  S
C3016      C3017   1.407       .  A
C3016      H3021   1.083       .  S
C3017      C3018   1.411       .  A
C3018      F3019   1.358       .  S
C3023      C3024   1.407       .  A
C3023      C3028   1.402       .  A
C3023      H3030   1.083       .  S
C3024      C3025   1.406       .  A
C3025      C3026   1.396       .  A
C3025      F3032   1.358       .  S
C3026      C3027   1.408       .  A
C3026      H3031   1.083       .  S
C3027      C3028   1.408       .  A
C3028      F3029   1.357       .  S
C3033      C3034   1.402       .  A
C3033      C3038   1.396       .  A
C3033      H3040   1.083       .  S
C3034      C3035   1.415       .  A
C3035      C3036   1.399       .  A
C3035      F3042   1.358       .  S
C3036      C3037   1.403       .  A
C3036      H3041   1.083       .  S
C3037      C3038   1.414       .  A
C3038      F3039   1.357       .  S
C3043      C3044   1.409       .  A
C3043      C3048   1.397       .  A
C3043      H3050   1.083       .  S
C3044      C3045   1.408       .  A
C3045      C3046   1.395       .  A
C3045      F3052   1.358       .  S
C3046      C3047   1.410       .  A
C3046      H3051   1.083       .  S
C3047      C3048   1.405       .  A
C3048      F3049   1.357       .  S
C3053      C3054   1.406       .  A
C3053      C3058   1.404   1_565  A
C3053      H3060   1.083       .  S
C3054      C3055   1.403       .  A
C3055      C3056   1.386   1_565  A
C3055      F3062   1.358       .  S
C3056      C3057   1.407       .  A
C3056      H3061   1.083       .  S
C3057      C3058   1.411       .  A
C3058      F3059   1.357       .  S
C3063      C3064   1.405       .  A
C3063      C3068   1.401       .  A
C3063      H3070   1.083       .  S
C3064      C3065   1.408       .  A
C3065      C3066   1.391       .  A
C3065      F3072   1.359       .  S
C3066      C3067   1.404       .  A
C3066      H3071   1.084       .  S
C3067      C3068   1.409       .  A
C3068      F3069   1.357       .  S
