geometry optimzed in LAMMPS
_audit_creation_date              2020-11-30 
_audit_creation_method            'lammps2cif' 
_symmetry_space_group_name_H-M    'P1' 
_symmetry_Int_Tables_number       1 
_symmetry_cell_setting            triclinic 
loop_ 
_symmetry_equiv_pos_as_xyz 
  x,y,z 
_cell_length_a                    36.28206208 
_cell_length_b                    70.84275669825627 
_cell_length_c                    145.41745200648447 
_cell_angle_alpha                 90.0530952622807 
_cell_angle_beta                  89.9884820974415 
_cell_angle_gamma                 90.02182216259189 
loop_ 
_atom_site_label 
_atom_site_type_symbol 
_atom_site_fract_x 
_atom_site_fract_y 
_atom_site_fract_z 
_atom_site_charge 
Zn1        Zn  0.10417270  0.48377401  0.30528851     1.49700
Zn2        Zn  0.10073295  0.51476437  0.32141357     1.49400
Zn3        Zn  0.16994114  0.48770470  0.31966822     1.49100
Zn4        Zn  0.15750167  0.52019247  0.30462763     1.49500
O5          O  0.13304954  0.50166293  0.31269371    -1.81900
O6          O  0.04995022  0.48631476  0.30810496    -0.72500
O7          O  0.11731862  0.51155781  0.33461413    -0.72300
O8          O  0.16564194  0.45972373  0.31766776    -0.71900
O9          O  0.04821574  0.50625420  0.31995473    -0.72500
O10         O  0.11994715  0.45671599  0.30756340    -0.72100
O11         O  0.16634009  0.49293088  0.33321213    -0.72700
O12         O  0.21322283  0.51916300  0.30607048    -0.72100
O13         O  0.09955605  0.54253655  0.31872155    -0.72900
O14         O  0.22062906  0.49531787  0.31586653    -0.72300
O15         O  0.13893498  0.54673171  0.30716005    -0.72700
O16         O  0.14611875  0.51460274  0.29129728    -0.72600
O17         O  0.11015415  0.48914233  0.29175452    -0.72400
C18         C  0.03222100  0.49567143  0.31412463     0.79400
C19         C  0.14433183  0.50262834  0.33809826     0.79900
C20         C  0.14487889  0.44958993  0.31264570     0.78800
C21         C  0.23373822  0.50801668  0.31065118     0.79200
C22         C  0.11549630  0.55310790  0.31289373     0.80300
C23         C  0.12717273  0.50189853  0.28730350     0.79400
Zn24       Zn  0.60111640  0.51447851  0.32152948     1.49700
Zn25       Zn  0.67089588  0.48773251  0.31955126     1.49400
Zn26       Zn  0.60455247  0.48349275  0.30535212     1.49100
Zn27       Zn  0.65705357  0.52019528  0.30456374     1.49500
O28         O  0.63333611  0.50153646  0.31270410    -1.81900
O29         O  0.61818149  0.51101528  0.33472081    -0.72500
O30         O  0.66768432  0.45979087  0.31735944    -0.72300
O31         O  0.55035845  0.48585177  0.30826227    -0.71900
O32         O  0.66703636  0.49232763  0.33313779    -0.72500
O33         O  0.54854206  0.50574345  0.32013489    -0.72100
O34         O  0.62075750  0.45649312  0.30763978    -0.72700
O35         O  0.64662911  0.51405998  0.29122180    -0.72100
O36         O  0.72130920  0.49605219  0.31583150    -0.72900
O37         O  0.61066690  0.48861098  0.29176710    -0.72300
O38         O  0.71272538  0.51993529  0.30611808    -0.72700
O39         O  0.63727217  0.54658234  0.30697458    -0.72600
O40         O  0.59945324  0.54231059  0.31885438    -0.72400
C41         C  0.64512044  0.50186762  0.33812051     0.79400
C42         C  0.64656242  0.44952874  0.31249896     0.79900
C43         C  0.53259015  0.49508031  0.31432374     0.78800
C44         C  0.62798992  0.50118752  0.28726074     0.79200
C45         C  0.73378277  0.50902342  0.31067625     0.80300
C46         C  0.61436925  0.55289805  0.31286105     0.79400
Zn47       Zn  0.26647022  0.51427862  0.42723208     1.49700
Zn48       Zn  0.26290732  0.48411045  0.44366294     1.49400
Zn49       Zn  0.20979050  0.52074468  0.44394481     1.49100
Zn50       Zn  0.19691355  0.48736122  0.42935987     1.49500
O51         O  0.23404734  0.50168787  0.43610512    -1.81900
O52         O  0.31913145  0.50594875  0.42882025    -0.72500
O53         O  0.25593003  0.48983168  0.45712721    -0.72300
O54         O  0.22942872  0.54710710  0.44125060    -0.71900
O55         O  0.31731300  0.48678018  0.44095032    -0.72500
O56         O  0.26788773  0.54220408  0.42956180    -0.72100
O57         O  0.21995994  0.51530066  0.45736137    -0.72700
O58         O  0.14634547  0.49526001  0.43311777    -0.72100
O59         O  0.24727788  0.45690112  0.44162944    -0.72900
O60         O  0.15405858  0.52003413  0.44235899    -0.72300
O61         O  0.20087621  0.45948164  0.43170877    -0.72700
O62         O  0.20036915  0.49190899  0.41575429    -0.72600
O63         O  0.24957714  0.51035982  0.41410268    -0.72400
C64         C  0.33512739  0.49582949  0.43483552     0.79400
C65         C  0.23846917  0.50259657  0.46147124     0.79900
C66         C  0.25263424  0.55311594  0.43536055     0.78800
C67         C  0.13339637  0.50848344  0.43804814     0.79200
C68         C  0.22189788  0.44956165  0.43675087     0.80300
C69         C  0.22237911  0.50134097  0.41074685     0.79400
Zn70       Zn  0.76596623  0.51480908  0.42740214     1.49700
Zn71       Zn  0.69624727  0.48796477  0.42963621     1.49400
Zn72       Zn  0.76331668  0.48382767  0.44356114     1.49100
Zn73       Zn  0.71091074  0.52056494  0.44451190     1.49500
O74         O  0.73418491  0.50185818  0.43631828    -1.81900
O75         O  0.74859490  0.51094748  0.41428263    -0.72500
O76         O  0.69939014  0.46004180  0.43187499    -0.72300
O77         O  0.81725190  0.48613482  0.44046997    -0.71900
O78         O  0.69974969  0.49228737  0.41602892    -0.72500
O79         O  0.81863278  0.50623674  0.42869854    -0.72100
O80         O  0.74702224  0.45679938  0.44137108    -0.72700
O81         O  0.72216464  0.51450668  0.45780133    -0.72100
O82         O  0.64603063  0.49640356  0.43346969    -0.72900
O83         O  0.75811311  0.48907049  0.45714307    -0.72300
O84         O  0.65510207  0.52034437  0.44314349    -0.72700
O85         O  0.73065105  0.54691531  0.44203805    -0.72600
O86         O  0.76753132  0.54271515  0.42996951    -0.72400
C87         C  0.72159840  0.50169233  0.41097053     0.79400
C88         C  0.72085650  0.44980348  0.43663740     0.79900
C89         C  0.83478107  0.49546895  0.43441492     0.78800
C90         C  0.74106440  0.50167636  0.46169866     0.79200
C91         C  0.63380321  0.50941837  0.43864580     0.80300
C92         C  0.75305951  0.55327275  0.43605050     0.79400
Zn93       Zn  0.51804094  0.73490194  0.30528597     1.49700
Zn94       Zn  0.45495292  0.72853166  0.32024652     1.49400
Zn95       Zn  0.50710276  0.76528497  0.32155706     1.49100
Zn96       Zn  0.44814695  0.76168630  0.30520191     1.49500
O97         O  0.48205482  0.74763456  0.31312035    -1.81900
O98         O  0.51813431  0.70690064  0.30748064    -0.72500
O99         O  0.45873297  0.73397777  0.33380369    -0.72300
O100        O  0.56260738  0.76322890  0.32022547    -0.71900
O101        O  0.47481641  0.70204252  0.31805300    -0.72500
O102        O  0.56905054  0.74351851  0.30838099    -0.72100
O103        O  0.49352046  0.75978671  0.33480964    -0.72700
O104        O  0.45066595  0.78952972  0.30778291    -0.72100
O105        O  0.40042910  0.72975325  0.31746604    -0.72900
O106        O  0.49187435  0.79235449  0.31903689    -0.72300
O107        O  0.39602644  0.75386031  0.30769331    -0.72700
O108        O  0.45906337  0.75785420  0.29168086    -0.72600
O109        O  0.50888134  0.73956811  0.29177679    -0.72400
C110        C  0.50025696  0.69598082  0.31278446     0.79400
C111        C  0.47412479  0.74688904  0.33851162     0.79900
C112        C  0.58264092  0.75414638  0.31455252     0.78800
C113        C  0.46888676  0.79954948  0.31343290     0.79200
C114        C  0.38138722  0.74112032  0.31264036     0.80300
C115        C  0.48435145  0.74887337  0.28748511     0.79400
Zn116      Zn  0.95423979  0.72791888  0.32022866     1.49700
Zn117      Zn  0.94917725  0.76182728  0.30554837     1.49400
Zn118      Zn  0.00637012  0.76468601  0.32231337     1.49100
Zn119      Zn  0.01911664  0.73494034  0.30586635     1.49500
O120        O  0.98220399  0.74738177  0.31354502    -1.81900
O121        O  0.90002590  0.72934578  0.31708316    -0.72500
O122        O  0.95082045  0.78954782  0.30853828    -0.72300
O123        O  0.99246839  0.75805987  0.33541832    -0.71900
O124        O  0.89675882  0.75368046  0.30742326    -0.72500
O125        O  0.95711774  0.73254250  0.33388814    -0.72100
O126        O  0.99025959  0.79180366  0.32020886    -0.72700
O127        O  0.06974051  0.74343318  0.30935690    -0.72100
O128        O  0.96195542  0.75863534  0.29210894    -0.72900
O129        O  0.06203568  0.76324431  0.32111036    -0.72300
O130        O  0.01149887  0.74015437  0.29238613    -0.72700
O131        O  0.01875894  0.70684705  0.30765834    -0.72600
O132        O  0.97385883  0.70147424  0.31774150    -0.72400
C133        C  0.88155030  0.74075453  0.31214561     0.79400
C134        C  0.96788512  0.79926341  0.31453101     0.79900
C135        C  0.97264770  0.74501250  0.33885060     0.78800
C136        C  0.08266438  0.75420313  0.31555620     0.79200
C137        C  0.98754819  0.74968361  0.28801789     0.80300
C138        C  0.99992083  0.69565133  0.31260112     0.79400
Zn139      Zn  0.35143874  0.73454626  0.44446909     1.49700
Zn140      Zn  0.42131155  0.76132591  0.44502115     1.49400
Zn141      Zn  0.41612382  0.72818547  0.42992261     1.49100
Zn142      Zn  0.36408622  0.76478980  0.42827475     1.49500
O143        O  0.38827716  0.74725244  0.43687876    -1.81900
O144        O  0.35955042  0.73886503  0.45805032    -0.72500
O145        O  0.47360395  0.75313163  0.44307080    -0.72300
O146        O  0.39484904  0.70188057  0.43165427    -0.71900
O147        O  0.40872790  0.75760047  0.45843904    -0.72500
O148        O  0.35076821  0.70663759  0.44204318    -0.72100
O149        O  0.47008344  0.72877313  0.43340006    -0.72700
O150        O  0.37941004  0.75946569  0.41512158    -0.72100
O151        O  0.41923953  0.78915728  0.44237355    -0.72900
O152        O  0.41491143  0.73398334  0.41636745    -0.72300
O153        O  0.37866533  0.79183243  0.43096536    -0.72700
O154        O  0.30851317  0.76260422  0.42919004    -0.72600
O155        O  0.30085014  0.74339014  0.44116414    -0.72400
C156        C  0.38342441  0.74835931  0.46248405     0.79400
C157        C  0.48864780  0.74007354  0.43839392     0.79900
C158        C  0.36871340  0.69581689  0.43669996     0.78800
C159        C  0.39979047  0.74679884  0.41155916     0.79200
C160        C  0.40122804  0.79909996  0.43665828     0.80300
C161        C  0.28791020  0.75377017  0.43482146     0.79400
Zn162      Zn  0.91568384  0.72817538  0.43024715     1.49700
Zn163      Zn  0.85223908  0.73476843  0.44508361     1.49400
Zn164      Zn  0.92181750  0.76188834  0.44502986     1.49100
Zn165      Zn  0.86283678  0.76461996  0.42861090     1.49500
O166        O  0.88815479  0.74740974  0.43719481    -1.81900
O167        O  0.89563763  0.70172719  0.43246289    -0.72500
O168        O  0.86190955  0.73942268  0.45856957    -0.72300
O169        O  0.97416728  0.75426265  0.44257543    -0.71900
O170        O  0.85166993  0.70675870  0.44284972    -0.72500
O171        O  0.97010561  0.72950792  0.43316206    -0.72100
O172        O  0.91105513  0.75820708  0.45857800    -0.72700
O173        O  0.87751241  0.79183871  0.43099340    -0.72100
O174        O  0.80121771  0.74353411  0.44213271    -0.72900
O175        O  0.91858344  0.78968778  0.44231357    -0.72300
O176        O  0.80725484  0.76244084  0.42998478    -0.72700
O177        O  0.87698858  0.75880142  0.41539366    -0.72600
O178        O  0.91259529  0.73335002  0.41665880    -0.72400
C179        C  0.86977946  0.69575948  0.43762714     0.79400
C180        C  0.88619961  0.74899836  0.46281825     0.79900
C181        C  0.98899685  0.74124124  0.43782934     0.78800
C182        C  0.90017782  0.79939024  0.43657745     0.79200
C183        C  0.78740838  0.75378341  0.43585335     0.80300
C184        C  0.89704958  0.74599277  0.41182638     0.79400
Zn185      Zn  0.20322693  0.22827566  0.31850308     1.49700
Zn186      Zn  0.19830774  0.26205112  0.30376352     1.49400
Zn187      Zn  0.25607975  0.26487936  0.32039030     1.49100
Zn188      Zn  0.26766476  0.23480591  0.30405328     1.49500
O189        O  0.23129732  0.24756634  0.31173915    -1.81900
O190        O  0.14916767  0.22949391  0.31525723    -0.72500
O191        O  0.20063095  0.28981433  0.30662299    -0.72300
O192        O  0.24185103  0.25864721  0.33351996    -0.71900
O193        O  0.14586819  0.25422952  0.30583930    -0.72500
O194        O  0.20528940  0.23355129  0.33208047    -0.72100
O195        O  0.24045875  0.29206612  0.31820976    -0.72700
O196        O  0.31841636  0.24367774  0.30712056    -0.72100
O197        O  0.21030562  0.25838797  0.29029589    -0.72900
O198        O  0.31177593  0.26312891  0.31905720    -0.72300
O199        O  0.25880994  0.23919368  0.29056889    -0.72700
O200        O  0.26819727  0.20685798  0.30629314    -0.72600
O201        O  0.22339399  0.20176616  0.31643058    -0.72400
C202        C  0.13068364  0.24115611  0.31046725     0.79400
C203        C  0.21802978  0.29954351  0.31255007     0.79900
C204        C  0.22117447  0.24598820  0.33698519     0.78800
C205        C  0.33190420  0.25427256  0.31331360     0.79200
C206        C  0.23512249  0.24888339  0.28619847     0.80300
C207        C  0.24971102  0.19582869  0.31140206     0.79400
Zn208      Zn  0.69764558  0.26166577  0.30372004     1.49700
Zn209      Zn  0.70383775  0.22804395  0.31856812     1.49400
Zn210      Zn  0.76728484  0.23455887  0.30376504     1.49100
Zn211      Zn  0.75615407  0.26475115  0.32012390     1.49500
O212        O  0.73120263  0.24727736  0.31159020    -1.81900
O213        O  0.64548204  0.25346948  0.30585195    -0.72500
O214        O  0.72375445  0.20156077  0.31629185    -0.72300
O215        O  0.75916406  0.24003099  0.29030534    -0.71900
O216        O  0.64945735  0.22917946  0.31553217    -0.72500
O217        O  0.70951514  0.25844668  0.29023709    -0.72100
O218        O  0.76662863  0.20640452  0.30561193    -0.72700
O219        O  0.81158610  0.26240790  0.31897509    -0.72100
O220        O  0.70708441  0.23335409  0.33217201    -0.72900
O221        O  0.81827945  0.24267441  0.30714903    -0.72300
O222        O  0.74185889  0.25915904  0.33330231    -0.72700
O223        O  0.74173595  0.29195723  0.31764905    -0.72600
O224        O  0.69992121  0.28946487  0.30652347    -0.72400
C225        C  0.63064472  0.24051318  0.31062774     0.79400
C226        C  0.74881568  0.19546009  0.31092004     0.79900
C227        C  0.73499191  0.24962064  0.28603940     0.78800
C228        C  0.83172849  0.25320351  0.31337832     0.79200
C229        C  0.72231562  0.24624092  0.33693647     0.80300
C230        C  0.71860436  0.29933741  0.31214255     0.79400
Zn231      Zn  0.17489407  0.26128786  0.42852625     1.49700
Zn232      Zn  0.16276842  0.22867953  0.44367822     1.49400
Zn233      Zn  0.10967386  0.26505036  0.44302819     1.49100
Zn234      Zn  0.10607107  0.23400306  0.42686301     1.49500
O235        O  0.13835355  0.24717943  0.43557658    -1.81900
O236        O  0.22557826  0.25315762  0.43200604    -0.72500
O237        O  0.15278494  0.23473521  0.45709600    -0.72300
O238        O  0.12581189  0.29207646  0.44092170    -0.71900
O239        O  0.21835341  0.22935433  0.44185450    -0.72500
O240        O  0.17163236  0.28920280  0.43085208    -0.72100
O241        O  0.11561548  0.25969840  0.45656469    -0.72700
O242        O  0.05369610  0.24263241  0.42835379    -0.72100
O243        O  0.14306782  0.20216839  0.44136830    -0.72900
O244        O  0.05560022  0.26279197  0.44011780    -0.72300
O245        O  0.10468414  0.20622667  0.42958936    -0.72700
O246        O  0.12209244  0.23746546  0.41361392    -0.72600
O247        O  0.17003926  0.25684135  0.41493023    -0.72400
C248        C  0.23875686  0.24036467  0.43715255     0.79400
C249        C  0.13346022  0.24733355  0.46106695     0.79900
C250        C  0.15102954  0.29925561  0.43594810     0.78800
C251        C  0.03783021  0.25343747  0.43410743     0.79200
C252        C  0.11989404  0.19574168  0.43557178     0.80300
C253        C  0.14820179  0.24699316  0.41006595     0.79400
Zn254      Zn  0.60990724  0.26500855  0.44291351     1.49700
Zn255      Zn  0.67550159  0.26127513  0.42850153     1.49400
Zn256      Zn  0.66301620  0.22844806  0.44338152     1.49100
Zn257      Zn  0.60597644  0.23411101  0.42670333     1.49500
O258        O  0.63853495  0.24715079  0.43541547    -1.81900
O259        O  0.62584023  0.29210108  0.44075284    -0.72500
O260        O  0.72624195  0.25327150  0.43210669    -0.72300
O261        O  0.65315698  0.23433831  0.45675746    -0.71900
O262        O  0.67205094  0.28919800  0.43079789    -0.72500
O263        O  0.61667084  0.25959728  0.45642462    -0.72100
O264        O  0.71864159  0.22909561  0.44170352    -0.72700
O265        O  0.60455974  0.20618109  0.42932806    -0.72100
O266        O  0.67083238  0.25684161  0.41490679    -0.72900
O267        O  0.64333296  0.20199736  0.44101397    -0.72300
O268        O  0.62210437  0.23797775  0.41346662    -0.72700
O269        O  0.55349210  0.24272729  0.42829910    -0.72600
O270        O  0.55556769  0.26266622  0.44014735    -0.72400
C271        C  0.65120245  0.29927571  0.43581859     0.79400
C272        C  0.73924558  0.24032300  0.43718955     0.79900
C273        C  0.63443254  0.24703267  0.46082050     0.78800
C274        C  0.61996592  0.19562146  0.43525727     0.79200
C275        C  0.64862739  0.24733005  0.40998320     0.80300
C276        C  0.53766766  0.25339994  0.43412318     0.79400
Zn277      Zn  0.40962614  0.02055553  0.30481119     1.49700
Zn278      Zn  0.35645528  0.98405559  0.30558859     1.49400
Zn279      Zn  0.42234128  0.98805944  0.31991385     1.49100
Zn280      Zn  0.35317939  0.01530353  0.32169950     1.49500
O281        O  0.38534000  0.00206091  0.31295470    -1.81900
O282        O  0.39887926  0.01452522  0.29143959    -0.72500
O283        O  0.37274240  0.95702245  0.30776436    -0.72300
O284        O  0.47296729  0.99611711  0.31627246    -0.71900
O285        O  0.36220750  0.98934152  0.29200408    -0.72500
O286        O  0.46532533  0.01982373  0.30640398    -0.72100
O287        O  0.41888910  0.96008759  0.31772439    -0.72700
O288        O  0.36984653  0.01191592  0.33491690    -0.72100
O289        O  0.30234484  0.98619210  0.30864720    -0.72900
O290        O  0.41811816  0.99278526  0.33349719    -0.72300
O291        O  0.30064759  0.00653821  0.32033890    -0.72700
O292        O  0.35201870  0.04315706  0.31897976    -0.72600
O293        O  0.39067770  0.04713832  0.30724622    -0.72400
C294        C  0.37977867  0.00181007  0.28748417     0.79400
C295        C  0.39808896  0.94992913  0.31272572     0.79900
C296        C  0.48594433  0.00887066  0.31106707     0.78800
C297        C  0.39635109  0.00258443  0.33840398     0.79200
C298        C  0.28466856  0.99554889  0.31467977     0.80300
C299        C  0.36761529  0.05363966  0.31304801     0.79400
Zn300      Zn  0.84849729  0.01378480  0.30509755     1.49700
Zn301      Zn  0.85936918  0.98473365  0.32180801     1.49400
Zn302      Zn  0.91751869  0.98639022  0.30524456     1.49100
Zn303      Zn  0.91284154  0.02094150  0.31957118     1.49500
O304        O  0.88460658  0.00144004  0.31299049    -1.81900
O305        O  0.79761565  0.00535074  0.30828619    -0.72500
O306        O  0.87372768  0.95739392  0.31978771    -0.72300
O307        O  0.90563257  0.98907697  0.29176522    -0.71900
O308        O  0.80377170  0.98687882  0.32057956    -0.72500
O309        O  0.85727378  0.00836910  0.29169861    -0.72100
O310        O  0.91477942  0.95884745  0.30843955    -0.72700
O311        O  0.96694928  0.01967232  0.31616623    -0.72100
O312        O  0.87436372  0.99109269  0.33484656    -0.72900
O313        O  0.96992355  0.99432192  0.30711278    -0.72300
O314        O  0.91135802  0.01596466  0.33320693    -0.72700
O315        O  0.89212719  0.04731833  0.31732235    -0.72600
O316        O  0.84826888  0.04185860  0.30696297    -0.72400
C317        C  0.78387204  0.99536132  0.31466991     0.79400
C318        C  0.89639032  0.94950957  0.31431967     0.79900
C319        C  0.88092955  0.99831236  0.28750897     0.78800
C320        C  0.98527792  0.00770807  0.31149197     0.79200
C321        C  0.89551845  0.00366896  0.33820196     0.80300
C322        C  0.86622931  0.05306590  0.31210856     0.79400
Zn323      Zn  0.51704124  0.01433571  0.42782145     1.49700
Zn324      Zn  0.51312229  0.98350149  0.44400054     1.49400
Zn325      Zn  0.46043599  0.02019102  0.44460829     1.49100
Zn326      Zn  0.44712496  0.98747859  0.42969764     1.49500
O327        O  0.48448984  0.00143724  0.43657088    -1.81900
O328        O  0.56950538  0.00554823  0.42931167    -0.72500
O329        O  0.50687551  0.98893698  0.45752799    -0.72300
O330        O  0.48021692  0.04660635  0.44221495    -0.71900
O331        O  0.56740390  0.98561462  0.44114098    -0.72500
O332        O  0.51880023  0.04223275  0.43049713    -0.72100
O333        O  0.47065752  0.01429031  0.45796149    -0.72700
O334        O  0.39646993  0.99569472  0.43334730    -0.72100
O335        O  0.49680899  0.95650309  0.44183329    -0.72900
O336        O  0.40477204  0.01967035  0.44304567    -0.72300
O337        O  0.45032047  0.95958615  0.43197512    -0.72700
O338        O  0.45166931  0.99180622  0.41610623    -0.72600
O339        O  0.50044796  0.01060974  0.41460547    -0.72400
C340        C  0.58531391  0.99482517  0.43510660     0.79400
C341        C  0.48939141  0.00154862  0.46197316     0.79900
C342        C  0.50357307  0.05287504  0.43643034     0.78800
C343        C  0.38383198  0.00862153  0.43851730     0.79200
C344        C  0.47123549  0.94943580  0.43692971     0.80300
C345        C  0.47376943  0.00130742  0.41115794     0.79400
Zn346      Zn  0.94710990  0.98823761  0.42921334     1.49700
Zn347      Zn  0.01721201  0.01489154  0.42759608     1.49400
Zn348      Zn  0.96057748  0.02043811  0.44442851     1.49100
Zn349      Zn  0.01274135  0.98354722  0.44352295     1.49500
O350        O  0.98443331  0.00185640  0.43624321    -1.81900
O351        O  0.95186047  0.99303025  0.41566994    -0.72500
O352        O  0.01814129  0.04275113  0.43019147    -0.72300
O353        O  0.90474212  0.01963654  0.44304509    -0.71900
O354        O  0.00158962  0.01120759  0.41433627    -0.72500
O355        O  0.89659765  0.99635674  0.43294129    -0.72100
O356        O  0.97958076  0.04700116  0.44192484    -0.72700
O357        O  0.00667309  0.98858756  0.45708480    -0.72100
O358        O  0.06969040  0.00645771  0.42927313    -0.72900
O359        O  0.97193899  0.01446544  0.45774532    -0.72300
O360        O  0.06706957  0.98583901  0.44081163    -0.72700
O361        O  0.99629122  0.95663602  0.44108914    -0.72600
O362        O  0.94999612  0.96023057  0.43121907    -0.72400
C363        C  0.97462877  0.00228575  0.41080236     0.79400
C364        C  0.00262296  0.05336311  0.43608268     0.79900
C365        C  0.88387428  0.00886139  0.43833520     0.78800
C366        C  0.99023303  0.00139710  0.46164095     0.79200
C367        C  0.08524440  0.99550011  0.43500059     0.80300
C368        C  0.97071855  0.94982231  0.43609725     0.79400
Zn369      Zn  0.29552309  0.51264690  0.55426643     1.49700
Zn370      Zn  0.22575965  0.48565189  0.55455248     1.49400
Zn371      Zn  0.29140908  0.47849359  0.56872482     1.49100
Zn372      Zn  0.23850808  0.51475185  0.57118010     1.49500
O373        O  0.26282716  0.49794021  0.56223156    -1.81900
O374        O  0.28242736  0.50968954  0.54083413    -0.72500
O375        O  0.22619900  0.45757794  0.55629999    -0.72300
O376        O  0.34522609  0.47967703  0.56522600    -0.71900
O377        O  0.23306118  0.49106862  0.54108723    -0.72500
O378        O  0.34817981  0.50461003  0.55593588    -0.72100
O379        O  0.27128851  0.45222113  0.56633542    -0.72700
O380        O  0.25410554  0.50821016  0.58417129    -0.72100
O381        O  0.17513778  0.49396700  0.55811376    -0.72900
O382        O  0.29024174  0.48306646  0.58240072    -0.72300
O383        O  0.18266735  0.51279809  0.57024284    -0.72700
O384        O  0.25332750  0.54201302  0.56903709    -0.72600
O385        O  0.29308848  0.54026840  0.55739985    -0.72400
C386        C  0.25683051  0.50075447  0.53673439     0.79400
C387        C  0.24511353  0.44641172  0.56123542     0.79900
C388        C  0.36352895  0.49132774  0.56038402     0.78800
C389        C  0.27485014  0.49540103  0.58746519     0.79200
C390        C  0.16208895  0.50413819  0.56452841     0.80300
C391        C  0.27545495  0.54974764  0.56338208     0.79400
Zn392      Zn  0.79991363  0.51128550  0.56979486     1.49700
Zn393      Zn  0.73446174  0.51552796  0.55524013     1.49400
Zn394      Zn  0.78795275  0.47939010  0.55433415     1.49100
Zn395      Zn  0.73092138  0.48416130  0.57122436     1.49500
O396        O  0.76327854  0.49753263  0.56259856    -1.81900
O397        O  0.79617064  0.53924020  0.56775369    -0.72500
O398        O  0.74049686  0.51057821  0.54163371    -0.72300
O399        O  0.84359115  0.48005842  0.55606265    -0.71900
O400        O  0.75061513  0.54245552  0.55762237    -0.72500
O401        O  0.85068524  0.50351272  0.56612213    -0.72100
O402        O  0.77775390  0.48566859  0.54097956    -0.72700
O403        O  0.72907759  0.45654943  0.56805737    -0.72100
O404        O  0.68026848  0.51317494  0.55813554    -0.72900
O405        O  0.76842972  0.45288231  0.55643067    -0.72300
O406        O  0.67854846  0.49314201  0.56993550    -0.72700
O407        O  0.74761734  0.48675008  0.58452739    -0.72600
O408        O  0.79564007  0.50610539  0.58338096    -0.72400
C409        C  0.77567099  0.54945199  0.56271579     0.79400
C410        C  0.75838126  0.49829782  0.53706896     0.79900
C411        C  0.86395744  0.49095779  0.56083950     0.78800
C412        C  0.74474290  0.44628592  0.56203994     0.79200
C413        C  0.66257281  0.50391459  0.56419223     0.80300
C414        C  0.77397649  0.49598751  0.58816300     0.79400
Zn415      Zn  0.32028818  0.51207730  0.67946866     1.49700
Zn416      Zn  0.38647131  0.51486038  0.69381109     1.49400
Zn417      Zn  0.33260612  0.47869993  0.69424624     1.49100
Zn418      Zn  0.38863023  0.48456302  0.67732901     1.49500
O419        O  0.35694976  0.49748274  0.68626445    -1.81900
O420        O  0.32413946  0.53984806  0.68219707    -0.72500
O421        O  0.38108189  0.50896318  0.70730723    -0.72300
O422        O  0.27689776  0.47948908  0.69248462    -0.71900
O423        O  0.37087431  0.54204932  0.69204467    -0.72500
O424        O  0.26948721  0.50375900  0.68291549    -0.72100
O425        O  0.34295457  0.48434960  0.70769069    -0.72700
O426        O  0.39045128  0.45671942  0.67992757    -0.72100
O427        O  0.44032698  0.51256493  0.69067613    -0.72900
O428        O  0.35244201  0.45220911  0.69174667    -0.72300
O429        O  0.44115716  0.49319939  0.67859687    -0.72700
O430        O  0.37160591  0.48842825  0.66417850    -0.72600
O431        O  0.32478214  0.50841887  0.66576685    -0.72400
C432        C  0.34540564  0.54956912  0.68728226     0.79400
C433        C  0.36288158  0.49660782  0.71173345     0.79900
C434        C  0.25638184  0.49069387  0.68792391     0.78800
C435        C  0.37560869  0.44601602  0.68588101     0.79200
C436        C  0.45755732  0.50360781  0.68443143     0.80300
C437        C  0.34590109  0.49843428  0.66076545     0.79400
Zn438      Zn  0.89323261  0.48489266  0.69464257     1.49700
Zn439      Zn  0.82402595  0.51205802  0.69465339     1.49400
Zn440      Zn  0.88208387  0.51434704  0.67796259     1.49100
Zn441      Zn  0.82906673  0.47809211  0.68001419     1.49500
O442        O  0.85712925  0.49741086  0.68676263    -1.81900
O443        O  0.88514470  0.49034494  0.70812413    -0.72500
O444        O  0.82616806  0.53964302  0.69152768    -0.72300
O445        O  0.93779164  0.51250594  0.67935565    -0.71900
O446        O  0.83639260  0.50935378  0.70815284    -0.72500
O447        O  0.94408175  0.49325845  0.69136640    -0.72100
O448        O  0.86665608  0.54158853  0.68005945    -0.72700
O449        O  0.83144737  0.48276690  0.66637513    -0.72100
O450        O  0.77165594  0.50392077  0.69274697    -0.72900
O451        O  0.86802957  0.50778221  0.66478968    -0.72300
O452        O  0.77497131  0.47930708  0.68323327    -0.72700
O453        O  0.84913923  0.45179462  0.68228485    -0.72600
O454        O  0.89301024  0.45680567  0.69269967    -0.72400
C455        C  0.86150541  0.50032387  0.71237441     0.79400
C456        C  0.84398120  0.54921033  0.68562306     0.79900
C457        C  0.95776156  0.50366069  0.68513095     0.78800
C458        C  0.84745394  0.49498999  0.66137988     0.79200
C459        C  0.75648849  0.49084335  0.68810748     0.80300
C460        C  0.87481202  0.44581995  0.68748766     0.79400
Zn461      Zn  0.97909392  0.26557958  0.67703918     1.49700
Zn462      Zn  0.04790288  0.23825652  0.67895843     1.49400
Zn463      Zn  0.03510089  0.27107236  0.69395126     1.49100
Zn464      Zn  0.98181824  0.23471250  0.69323878     1.49500
O465        O  0.01097975  0.25245119  0.68584035    -1.81900
O466        O  0.99617999  0.26228668  0.66384067    -0.72500
O467        O  0.09847967  0.24627873  0.68272108    -0.72300
O468        O  0.01577282  0.29753698  0.69159329    -0.71900
O469        O  0.04420093  0.24301055  0.66532334    -0.72500
O470        O  0.97759787  0.29332288  0.67978861    -0.72100
O471        O  0.09069347  0.27036892  0.69238970    -0.72700
O472        O  0.98785201  0.24007113  0.70675933    -0.72100
O473        O  0.04405673  0.21029043  0.68128664    -0.72900
O474        O  0.02451107  0.26524777  0.70729316    -0.72300
O475        O  0.99745018  0.20754364  0.69114421    -0.72700
O476        O  0.92776380  0.23755005  0.69040200    -0.72600
O477        O  0.92642118  0.25725181  0.67846582    -0.72400
C478        C  0.02277450  0.25294539  0.66038660     0.79400
C479        C  0.11136812  0.25919951  0.68785747     0.79900
C480        C  0.99267663  0.30387148  0.68577150     0.78800
C481        C  0.00539074  0.25258344  0.71125206     0.79200
C482        C  0.02299115  0.20028403  0.68629152     0.80300
C483        C  0.91022984  0.24690380  0.68435749     0.79400
Zn484      Zn  0.48136365  0.23437067  0.69282767     1.49700
Zn485      Zn  0.54755392  0.23770640  0.67850860     1.49400
Zn486      Zn  0.47918066  0.26543634  0.67657723     1.49100
Zn487      Zn  0.53504988  0.27057619  0.69350877     1.49500
O488        O  0.51071972  0.25205437  0.68539472    -1.81900
O489        O  0.49646367  0.20711464  0.69060940    -0.72500
O490        O  0.54419565  0.24258398  0.66488447    -0.72300
O491        O  0.42635400  0.25722587  0.67800713    -0.71900
O492        O  0.54273705  0.20973345  0.68064855    -0.72500
O493        O  0.42732434  0.23729056  0.68986361    -0.72100
O494        O  0.49606921  0.26177827  0.66337285    -0.72700
O495        O  0.51697368  0.29729275  0.69101654    -0.72100
O496        O  0.59836644  0.24524870  0.68240484    -0.72900
O497        O  0.47879945  0.29338319  0.67919041    -0.72300
O498        O  0.59051302  0.26936437  0.69205572    -0.72700
O499        O  0.52428411  0.26484526  0.70685842    -0.72600
O500        O  0.48763488  0.23965311  0.70642202    -0.72400
C501        C  0.52155021  0.19976786  0.68563742     0.79400
C502        C  0.52268525  0.25243099  0.65993147     0.79900
C503        C  0.40998030  0.24670130  0.68379834     0.78800
C504        C  0.49439770  0.30387211  0.68512676     0.79200
C505        C  0.61121029  0.25809051  0.68760107     0.80300
C506        C  0.50529963  0.25220340  0.71087616     0.79400
Zn507      Zn  0.14257938  0.26543677  0.57069730     1.49700
Zn508      Zn  0.13877323  0.23464342  0.55442002     1.49400
Zn509      Zn  0.07269690  0.23874257  0.56875149     1.49100
Zn510      Zn  0.08647883  0.27140609  0.55379466     1.49500
O511        O  0.11017766  0.25260549  0.56187615    -1.81900
O512        O  0.19512660  0.25677220  0.56915040    -0.72500
O513        O  0.12222471  0.20761219  0.55655469    -0.72300
O514        O  0.07682155  0.24319396  0.58240735    -0.71900
O515        O  0.19312714  0.23694887  0.55725020    -0.72500
O516        O  0.12578136  0.26185321  0.58392068    -0.72100
O517        O  0.07552756  0.21079358  0.56635879    -0.72700
O518        O  0.03088100  0.27117439  0.55536357    -0.72100
O519        O  0.13243526  0.23999829  0.54087035    -0.72900
O520        O  0.02232778  0.24722902  0.56504949    -0.72300
O521        O  0.09661246  0.26548281  0.54041807    -0.72700
O522        O  0.10637373  0.29772093  0.55625091    -0.72600
O523        O  0.14425780  0.29330014  0.56809900    -0.72400
C524        C  0.21100643  0.24619067  0.56329143     0.79400
C525        C  0.09636584  0.20059231  0.56138667     0.79900
C526        C  0.09888532  0.25272568  0.58736942     0.78800
C527        C  0.00984639  0.26021619  0.55990519     0.79200
C528        C  0.11511185  0.25262881  0.53640930     0.80300
C529        C  0.12935856  0.30395081  0.56213475     0.79400
Zn530      Zn  0.57359235  0.23850309  0.56858523     1.49700
Zn531      Zn  0.58620404  0.27045355  0.55317621     1.49400
Zn532      Zn  0.64206085  0.26628247  0.57022602     1.49100
Zn533      Zn  0.64015501  0.23433945  0.55444886     1.49500
O534        O  0.61052854  0.25244881  0.56156219    -1.81900
O535        O  0.52285109  0.24687375  0.56511003    -0.72500
O536        O  0.60536108  0.29713393  0.55517251    -0.72300
O537        O  0.62549278  0.26309872  0.58347168    -0.71900
O538        O  0.53055178  0.27000798  0.55492170    -0.72500
O539        O  0.57844253  0.24312503  0.58218676    -0.72100
O540        O  0.64258281  0.29399098  0.56724225    -0.72700
O541        O  0.69410092  0.23710734  0.55751046    -0.72100
O542        O  0.59696289  0.26368975  0.53989801    -0.72900
O543        O  0.69494113  0.25812803  0.56891818    -0.72300
O544        O  0.63495865  0.23909075  0.54083391    -0.72700
O545        O  0.62416243  0.20728269  0.55672961    -0.72600
O546        O  0.57667084  0.21050614  0.56628430    -0.72400
C547        C  0.50990150  0.25946741  0.55980602     0.79400
C548        C  0.62771448  0.30404171  0.56103153     0.79900
C549        C  0.59968914  0.25335825  0.58703315     0.78800
C550        C  0.71138374  0.24706234  0.56338245     0.79200
C551        C  0.61694593  0.25108941  0.53613920     0.80300
C552        C  0.59804652  0.20026890  0.56147364     0.79400
Zn553      Zn  0.98005036  0.98532873  0.57109254     1.49700
Zn554      Zn  0.04973710  0.01232787  0.56913794     1.49400
Zn555      Zn  0.03721437  0.97885063  0.55452919     1.49100
Zn556      Zn  0.98452584  0.01556375  0.55462590     1.49500
O557        O  0.01284205  0.99796482  0.56230525    -1.81900
O558        O  0.99626745  0.98943365  0.58430985    -0.72500
O559        O  0.10048549  0.00396893  0.56568192    -0.72300
O560        O  0.01637249  0.95261270  0.55691943    -0.71900
O561        O  0.04498705  0.00825982  0.58276108    -0.72500
O562        O  0.97785941  0.95733075  0.56861315    -0.72100
O563        O  0.09268094  0.97903386  0.55653603    -0.72700
O564        O  0.99258812  0.00995797  0.54117370    -0.72100
O565        O  0.04616827  0.04023968  0.56668972    -0.72900
O566        O  0.02877542  0.98457416  0.54106043    -0.72300
O567        O  0.99974111  0.04280211  0.55678115    -0.72700
O568        O  0.93002733  0.01291463  0.55715744    -0.72600
O569        O  0.92775407  0.99404981  0.56940157    -0.72400
C570        C  0.02283179  0.99885025  0.58773882     0.79400
C571        C  0.11337097  0.99047169  0.56091016     0.79900
C572        C  0.99284192  0.94652951  0.56270862     0.78800
C573        C  0.01057540  0.99730282  0.53688437     0.79200
C574        C  0.02504827  0.05016758  0.56167300     0.80300
C575        C  0.91202122  0.00409735  0.56331709     0.79400
Zn576      Zn  0.53651256  0.97936543  0.55448849     1.49700
Zn577      Zn  0.48169167  0.98462967  0.57169539     1.49400
Zn578      Zn  0.55047317  0.01192855  0.56957543     1.49100
Zn579      Zn  0.48347698  0.01576351  0.55552058     1.49500
O580        O  0.51299764  0.99787554  0.56277860    -1.81900
O581        O  0.51718474  0.95284923  0.55684897    -0.72500
O582        O  0.49861057  0.98856889  0.58490315    -0.72300
O583        O  0.60076391  0.00365134  0.56571530    -0.71900
O584        O  0.48090240  0.95673976  0.56905410    -0.72500
O585        O  0.59217940  0.97990778  0.55588485    -0.72100
O586        O  0.54691131  0.00761009  0.58325142    -0.72700
O587        O  0.49943430  0.04287034  0.55770148    -0.72100
O588        O  0.42880358  0.99268852  0.57028462    -0.72900
O589        O  0.54709115  0.03986501  0.56721682    -0.72300
O590        O  0.42944723  0.01293593  0.55856044    -0.72700
O591        O  0.48901636  0.01073701  0.54190913    -0.72600
O592        O  0.52551240  0.98553464  0.54118459    -0.72400
C593        C  0.49516123  0.94632151  0.56288476     0.79400
C594        C  0.52523947  0.99801697  0.58828505     0.79900
C595        C  0.61322174  0.99084326  0.56044841     0.78800
C596        C  0.52560545  0.04999059  0.56239374     0.79200
C597        C  0.41224928  0.00330237  0.56457228     0.80300
C598        C  0.50639887  0.99831351  0.53731473     0.79400
Zn599      Zn  0.08106972  0.97844049  0.67921615     1.49700
Zn600      Zn  0.13234569  0.01568311  0.67743211     1.49400
Zn601      Zn  0.07525333  0.01187949  0.69411741     1.49100
Zn602      Zn  0.14603058  0.98552347  0.69357443     1.49500
O603        O  0.10864958  0.99789821  0.68602654    -1.81900
O604        O  0.08261772  0.98403173  0.66561706    -0.72500
O605        O  0.11736724  0.04277970  0.68013704    -0.72300
O606        O  0.02295212  0.00384245  0.69200665    -0.71900
O607        O  0.11653153  0.01012813  0.66435906    -0.72500
O608        O  0.02677395  0.97916726  0.68254611    -0.72100
O609        O  0.07734857  0.03980958  0.69164269    -0.72700
O610        O  0.13773439  0.98990234  0.70710593    -0.72100
O611        O  0.18811976  0.01376726  0.67821700    -0.72900
O612        O  0.08732269  0.00776204  0.70751204    -0.72300
O613        O  0.19640772  0.99460296  0.69018097    -0.72700
O614        O  0.14705168  0.95751983  0.69140477    -0.72600
O615        O  0.10229231  0.95208212  0.68128828    -0.72400
C616        C  0.09685622  0.99714362  0.66081217     0.79400
C617        C  0.09496609  0.04991747  0.68591591     0.79900
C618        C  0.00800575  0.99068369  0.68737791     0.78800
C619        C  0.11310292  0.99885800  0.71153949     0.79200
C620        C  0.20903163  0.00503861  0.68381621     0.80300
C621        C  0.12874555  0.94632968  0.68632573     0.79400
Zn622      Zn  0.63269930  0.01509659  0.67848602     1.49700
Zn623      Zn  0.57468023  0.01171733  0.69510163     1.49400
Zn624      Zn  0.57980939  0.97855520  0.67993974     1.49100
Zn625      Zn  0.64405402  0.98446171  0.69466800     1.49500
O626        O  0.60781993  0.99749761  0.68699550    -1.81900
O627        O  0.61739773  0.04225754  0.68102645    -0.72500
O628        O  0.52224680  0.00386793  0.69299645    -0.72300
O629        O  0.58258877  0.98412424  0.66634194    -0.71900
O630        O  0.57691177  0.03958238  0.69245414    -0.72500
O631        O  0.61859997  0.00946800  0.66522431    -0.72100
O632        O  0.52555479  0.97986524  0.68311264    -0.72700
O633        O  0.64390933  0.95647732  0.69226048    -0.72100
O634        O  0.58672735  0.00791728  0.70855387    -0.72900
O635        O  0.59967738  0.95195238  0.68189199    -0.72300
O636        O  0.63545113  0.98887847  0.70825762    -0.72700
O637        O  0.69509102  0.99306425  0.69149001    -0.72600
O638        O  0.68839966  0.01297064  0.67974762    -0.72400
C639        C  0.59470608  0.04953900  0.68669700     0.79400
C640        C  0.50705097  0.99116577  0.68811978     0.79900
C641        C  0.59840706  0.99680230  0.66157242     0.78800
C642        C  0.62555921  0.94571359  0.68696925     0.79200
C643        C  0.61167003  0.99852500  0.71265126     0.80300
C644        C  0.70858445  0.00377294  0.68534247     0.79400
Zn645      Zn  0.31989975  0.73893649  0.56999201     1.49700
Zn646      Zn  0.38654868  0.73423014  0.55591098     1.49400
Zn647      Zn  0.33496001  0.77128215  0.55498945     1.49100
Zn648      Zn  0.39031334  0.76540737  0.57201349     1.49500
O649        O  0.35798716  0.75251214  0.56318933    -1.81900
O650        O  0.32250672  0.71091361  0.56783015    -0.72500
O651        O  0.38031444  0.73914443  0.54232746    -0.72300
O652        O  0.27921980  0.77136231  0.55641858    -0.71900
O653        O  0.37013291  0.70727646  0.55834985    -0.72500
O654        O  0.26979985  0.74764219  0.56618517    -0.72100
O655        O  0.34579737  0.76509385  0.54168958    -0.72700
O656        O  0.39193414  0.79337882  0.56948048    -0.72100
O657        O  0.44095556  0.73668926  0.55867081    -0.72900
O658        O  0.35512794  0.79756734  0.55740747    -0.72300
O659        O  0.44287741  0.75685234  0.57043067    -0.72700
O660        O  0.37370057  0.76146817  0.58522471    -0.72600
O661        O  0.32389811  0.74342621  0.58361017    -0.72400
C662        C  0.34387943  0.70047859  0.56312485     0.79400
C663        C  0.36385018  0.75194713  0.53778119     0.79900
C664        C  0.25777642  0.76063525  0.56097658     0.78800
C665        C  0.37756015  0.80393215  0.56338914     0.79200
C666        C  0.45880819  0.74614503  0.56463794     0.80300
C667        C  0.34643409  0.75254126  0.58861842     0.79400
Zn668      Zn  0.82217189  0.73773922  0.57052059     1.49700
Zn669      Zn  0.88834022  0.73393859  0.55625981     1.49400
Zn670      Zn  0.83459030  0.77025893  0.55541970     1.49100
Zn671      Zn  0.89102302  0.76531276  0.57228162     1.49500
O672        O  0.85906877  0.75186774  0.56356908    -1.81900
O673        O  0.82574430  0.70977343  0.56826490    -0.72500
O674        O  0.88218421  0.73899731  0.54267904    -0.72300
O675        O  0.77887815  0.76964351  0.55718086    -0.71900
O676        O  0.87267652  0.70683642  0.55851937    -0.72500
O677        O  0.77138260  0.74582987  0.56699843    -0.72100
O678        O  0.84496866  0.76395866  0.54206846    -0.72700
O679        O  0.89208273  0.79314910  0.56950777    -0.72100
O680        O  0.94252194  0.73665497  0.55917110    -0.72900
O681        O  0.85402805  0.79687637  0.55764396    -0.72300
O682        O  0.94373221  0.75695677  0.57088123    -0.72700
O683        O  0.87446572  0.76184295  0.58548967    -0.72600
O684        O  0.82666908  0.74236063  0.58409988    -0.72400
C685        C  0.84701979  0.69967392  0.56336271     0.79400
C686        C  0.86431595  0.75131304  0.53814052     0.79900
C687        C  0.75831071  0.75867984  0.56186632     0.78800
C688        C  0.87693004  0.80349810  0.56345562     0.79200
C689        C  0.96000268  0.74622961  0.56515981     0.80300
C690        C  0.84826334  0.75229802  0.58899032     0.79400
Zn691      Zn  0.29820470  0.73754750  0.68019935     1.49700
Zn692      Zn  0.28609948  0.77045221  0.69517122     1.49400
Zn693      Zn  0.22936859  0.76484954  0.67836684     1.49100
Zn694      Zn  0.23256108  0.73401470  0.69459750     1.49500
O695        O  0.26151376  0.75179756  0.68714477    -1.81900
O696        O  0.34893590  0.74544345  0.68377528    -0.72500
O697        O  0.26734727  0.79707321  0.69260317    -0.72300
O698        O  0.24595768  0.76121493  0.66515721    -0.71900
O699        O  0.34179270  0.76942308  0.69353298    -0.72500
O700        O  0.29398088  0.74194590  0.66660064    -0.72100
O701        O  0.22838922  0.79272278  0.68096331    -0.72700
O702        O  0.17842480  0.73618261  0.69158535    -0.72100
O703        O  0.27542071  0.76475320  0.70858340    -0.72900
O704        O  0.17678984  0.75624688  0.67979857    -0.72300
O705        O  0.23838439  0.73969325  0.70811415    -0.72700
O706        O  0.24882182  0.70690695  0.69261485    -0.72600
O707        O  0.29461582  0.70970518  0.68253546    -0.72400
C708        C  0.36217668  0.75824780  0.68891642     0.79400
C709        C  0.24415716  0.80339761  0.68678827     0.79900
C710        C  0.27230839  0.75174041  0.66167902     0.78800
C711        C  0.16076319  0.74546074  0.68553188     0.79200
C712        C  0.25609806  0.75219229  0.71258116     0.80300
C713        C  0.27406127  0.69969435  0.68765135     0.79400
Zn714      Zn  0.73637864  0.73436729  0.67836521     1.49700
Zn715      Zn  0.72377914  0.76434578  0.69463086     1.49400
Zn716      Zn  0.79279787  0.73693051  0.69533113     1.49100
Zn717      Zn  0.78971417  0.77066368  0.68054529     1.49500
O718        O  0.76075341  0.75151643  0.68716004    -1.81900
O719        O  0.68057131  0.73638815  0.67929122    -0.72500
O720        O  0.73115868  0.75999944  0.70817077    -0.72300
O721        O  0.79046050  0.70916364  0.69239405    -0.71900
O722        O  0.67338740  0.75550384  0.69132785    -0.72500
O723        O  0.75098840  0.70717635  0.68071586    -0.72100
O724        O  0.77907638  0.74044553  0.70869319    -0.72700
O725        O  0.84346915  0.76944911  0.68421869    -0.72100
O726        O  0.72329832  0.79223161  0.69227211    -0.72900
O727        O  0.84556083  0.74481645  0.69372348    -0.72300
O728        O  0.76910541  0.79716539  0.68239213    -0.72700
O729        O  0.78914503  0.76521759  0.66695586    -0.72600
O730        O  0.75228992  0.74028370  0.66533789    -0.72400
C731        C  0.66018118  0.74513831  0.68501391     0.79400
C732        C  0.75409189  0.75006483  0.71265745     0.79900
C733        C  0.77297945  0.69955432  0.68643038     0.78800
C734        C  0.86135282  0.75786139  0.68919870     0.79200
C735        C  0.74221628  0.80316688  0.68721305     0.80300
C736        C  0.77359973  0.75278133  0.66197982     0.79400
Zn737      Zn  0.52314095  0.51643761  0.94349060     1.49700
Zn738      Zn  0.45693804  0.52208742  0.92935031     1.49400
Zn739      Zn  0.51066187  0.48589400  0.92740415     1.49100
Zn740      Zn  0.45425344  0.48888972  0.94436846     1.49500
O741        O  0.48624811  0.50327699  0.93609601    -1.81900
O742        O  0.52219723  0.54435950  0.94116603    -0.72500
O743        O  0.45807928  0.51652588  0.91577330    -0.72300
O744        O  0.56648999  0.48783288  0.92842150    -0.71900
O745        O  0.47636233  0.54874214  0.93123228    -0.72500
O746        O  0.57378866  0.50790521  0.94008361    -0.72100
O747        O  0.49519908  0.49166919  0.91429930    -0.72700
O748        O  0.45678143  0.46107898  0.94165532    -0.72100
O749        O  0.40319632  0.52068100  0.93294965    -0.72900
O750        O  0.49577290  0.45873788  0.92988986    -0.72300
O751        O  0.40139221  0.49653544  0.94273816    -0.72700
O752        O  0.46788499  0.49278419  0.95768857    -0.72600
O753        O  0.51618059  0.51209387  0.95708077    -0.72400
C754        C  0.50275128  0.55506980  0.93611840     0.79400
C755        C  0.47392314  0.50408793  0.91085835     0.79900
C756        C  0.58695010  0.49705735  0.93395151     0.78800
C757        C  0.47400280  0.45128893  0.93571949     0.79200
C758        C  0.38545137  0.50930309  0.93807007     0.80300
C759        C  0.49303913  0.50234882  0.96161360     0.79400
Zn760      Zn  0.94878541  0.48855794  0.92964700     1.49700
Zn761      Zn  0.01766551  0.51596411  0.92789029     1.49400
Zn762      Zn  0.96084566  0.52139280  0.94462009     1.49100
Zn763      Zn  0.01414421  0.48482078  0.94401268     1.49500
O764        O  0.98544540  0.50276153  0.93660208    -1.81900
O765        O  0.95363784  0.49282406  0.91608675    -0.72500
O766        O  0.01913128  0.54379995  0.93062053    -0.72300
O767        O  0.90528264  0.52092751  0.94270973    -0.71900
O768        O  0.00106365  0.51252013  0.91467277    -0.72500
O769        O  0.89816484  0.49690736  0.93297708    -0.72100
O770        O  0.98056386  0.54792552  0.94235635    -0.72700
O771        O  0.00785240  0.49031864  0.95752461    -0.72100
O772        O  0.07009787  0.50724243  0.92932664    -0.72900
O773        O  0.97045174  0.51523194  0.95800240    -0.72300
O774        O  0.06836621  0.48705559  0.94106914    -0.72700
O775        O  0.99774099  0.45770039  0.94197546    -0.72600
O776        O  0.95147973  0.46069248  0.93205849    -0.72400
C777        C  0.97500924  0.50283558  0.91118708     0.79400
C778        C  0.00379082  0.55433617  0.93657375     0.79900
C779        C  0.88493147  0.50989234  0.93800350     0.78800
C780        C  0.98969883  0.50264700  0.96199164     0.79200
C781        C  0.08606927  0.49641432  0.93504576     0.80300
C782        C  0.97212326  0.45057853  0.93709881     0.79400
Zn783      Zn  0.41899782  0.48868581  0.80465280     1.49700
Zn784      Zn  0.34984376  0.51616327  0.80495149     1.49400
Zn785      Zn  0.36099530  0.48573903  0.82122790     1.49100
Zn786      Zn  0.41395947  0.52221722  0.81958536     1.49500
O787        O  0.38592917  0.50314343  0.81265110    -1.81900
O788        O  0.40656910  0.49213705  0.79121114    -0.72500
O789        O  0.29902234  0.50733822  0.80802779    -0.72300
O790        O  0.37574114  0.45852022  0.81876497    -0.71900
O791        O  0.35841545  0.51156210  0.79140279    -0.72500
O792        O  0.41664932  0.46081281  0.80741843    -0.72100
O793        O  0.30532561  0.48775848  0.81991381    -0.72700
O794        O  0.41218518  0.51660115  0.83313931    -0.72100
O795        O  0.34966343  0.54418928  0.80732963    -0.72900
O796        O  0.37566805  0.49146814  0.83442715    -0.72300
O797        O  0.39375138  0.54869238  0.81773187    -0.72700
O798        O  0.46788261  0.52134782  0.81620898    -0.72600
O799        O  0.47137338  0.49688536  0.80659995    -0.72400
C800        C  0.38184607  0.50159381  0.78706844     0.79400
C801        C  0.28535944  0.49669754  0.81417313     0.79900
C802        C  0.39837030  0.45102270  0.81315353     0.78800
C803        C  0.39643143  0.50401837  0.83797263     0.79200
C804        C  0.36792872  0.55493614  0.81264899     0.80300
C805        C  0.48642682  0.50998268  0.81125539     0.79400
Zn806      Zn  0.85392549  0.51520146  0.82202013     1.49700
Zn807      Zn  0.91046295  0.52157680  0.80529525     1.49400
Zn808      Zn  0.92271145  0.48785525  0.81983815     1.49100
Zn809      Zn  0.85700301  0.48514184  0.80544629     1.49500
O810        O  0.88604384  0.50251655  0.81309936    -1.81900
O811        O  0.85266322  0.54316493  0.81976194    -0.72500
O812        O  0.96617226  0.52056430  0.80693044    -0.72300
O813        O  0.91853343  0.49178550  0.83349855    -0.71900
O814        O  0.89126291  0.54801533  0.80810169    -0.72500
O815        O  0.87042987  0.51095982  0.83515831    -0.72100
O816        O  0.97343942  0.49598561  0.81630729    -0.72700
O817        O  0.87294090  0.45792971  0.80708576    -0.72100
O818        O  0.89981891  0.51647297  0.79182745    -0.72900
O819        O  0.91900248  0.46003916  0.81712747    -0.72300
O820        O  0.86295378  0.49134267  0.79202000    -0.72700
O821        O  0.80288880  0.48743674  0.80837948    -0.72600
O822        O  0.80138438  0.50685672  0.82043677    -0.72400
C823        C  0.86805359  0.55406551  0.81398621     0.79400
C824        C  0.98661938  0.50911790  0.81136053     0.79900
C825        C  0.89684709  0.50138898  0.83852356     0.78800
C826        C  0.89824708  0.45036834  0.81188894     0.79200
C827        C  0.88056471  0.50406141  0.78769460     0.80300
C828        C  0.78528980  0.49651614  0.81452124     0.79400
Zn829      Zn  0.09977283  0.73622647  0.94484568     1.49700
Zn830      Zn  0.16947762  0.76315879  0.94522758     1.49400
Zn831      Zn  0.16435601  0.72988539  0.93021965     1.49100
Zn832      Zn  0.11160078  0.76627258  0.92852058     1.49500
O833        O  0.13630771  0.74892641  0.93715638    -1.81900
O834        O  0.10837037  0.74069195  0.95840607    -0.72500
O835        O  0.22184988  0.75506633  0.94328185    -0.72300
O836        O  0.14435903  0.70343216  0.93231195    -0.71900
O837        O  0.15713935  0.75970593  0.95868553    -0.72500
O838        O  0.09965907  0.70822539  0.94253628    -0.72100
O839        O  0.21845614  0.73095364  0.93347469    -0.72700
O840        O  0.12537686  0.76028410  0.91530789    -0.72100
O841        O  0.16759199  0.79087763  0.94236472    -0.72900
O842        O  0.16203667  0.73524311  0.91661375    -0.72300
O843        O  0.12759045  0.79321982  0.93080985    -0.72700
O844        O  0.05594283  0.76485092  0.92989509    -0.72600
O845        O  0.04900293  0.74520762  0.94172829    -0.72400
C846        C  0.13213018  0.75036101  0.96278896     0.79400
C847        C  0.23697734  0.74220395  0.93849755     0.79900
C848        C  0.11832674  0.69732864  0.93738026     0.78800
C849        C  0.14598392  0.74768988  0.91175880     0.79200
C850        C  0.15012420  0.80061957  0.93646628     0.80300
C851        C  0.03567003  0.75597182  0.93558986     0.79400
Zn852      Zn  0.59986788  0.73619659  0.94440289     1.49700
Zn853      Zn  0.66935876  0.76343270  0.94484551     1.49400
Zn854      Zn  0.66402176  0.73047507  0.92965117     1.49100
Zn855      Zn  0.61094961  0.76686702  0.92836374     1.49500
O856        O  0.63610636  0.74927886  0.93677804    -1.81900
O857        O  0.60828105  0.74051506  0.95795862    -0.72500
O858        O  0.72178686  0.75526450  0.94281723    -0.72300
O859        O  0.64353119  0.70397809  0.93136314    -0.71900
O860        O  0.65666889  0.75980691  0.95828256    -0.72500
O861        O  0.59975484  0.70832174  0.94187627    -0.72100
O862        O  0.71818105  0.73128313  0.93292993    -0.72700
O863        O  0.62480582  0.76154237  0.91514266    -0.72100
O864        O  0.66734962  0.79128191  0.94211246    -0.72900
O865        O  0.66174559  0.73654248  0.91613050    -0.72300
O866        O  0.62610508  0.79388510  0.93085696    -0.72700
O867        O  0.55547304  0.76490040  0.92965550    -0.72600
O868        O  0.54893864  0.74490091  0.94135444    -0.72400
C869        C  0.63173214  0.75034632  0.96235773     0.79400
C870        C  0.73682440  0.74243607  0.93798225     0.79900
C871        C  0.61775643  0.69768270  0.93645819     0.78800
C872        C  0.64552616  0.74919997  0.91144330     0.79200
C873        C  0.64913581  0.80118542  0.93641769     0.80300
C874        C  0.53540209  0.75571362  0.93526922     0.79400
Zn875      Zn  0.20083681  0.76334140  0.80543848     1.49700
Zn876      Zn  0.20569958  0.73003834  0.82044957     1.49400
Zn877      Zn  0.27037508  0.73616118  0.80595564     1.49100
Zn878      Zn  0.25832886  0.76656689  0.82214718     1.49500
O879        O  0.23379035  0.74908988  0.81353616    -1.81900
O880        O  0.14820526  0.75573405  0.80767620    -0.72500
O881        O  0.22537213  0.70347494  0.81845416    -0.72300
O882        O  0.26160910  0.74005888  0.79238421    -0.71900
O883        O  0.15160790  0.73138508  0.81732993    -0.72500
O884        O  0.21274712  0.75901029  0.79199030    -0.72100
O885        O  0.27075775  0.70827962  0.80843808    -0.72700
O886        O  0.31394408  0.76457931  0.82100567    -0.72100
O887        O  0.20798277  0.73545852  0.83400805    -0.72900
O888        O  0.32110273  0.74517753  0.80906474    -0.72300
O889        O  0.24346442  0.76096106  0.83532531    -0.72700
O890        O  0.24361392  0.79368944  0.81960629    -0.72600
O891        O  0.20391028  0.79129886  0.80799532    -0.72400
C892        C  0.13305036  0.74289647  0.81247561     0.79400
C893        C  0.25188325  0.69739446  0.81353690     0.79900
C894        C  0.23767379  0.74947555  0.78794512     0.78800
C895        C  0.33431097  0.75575400  0.81530908     0.79200
C896        C  0.22321175  0.74819502  0.83885509     0.80300
C897        C  0.22161797  0.80112961  0.81383470     0.79400
Zn898      Zn  0.75781687  0.76652452  0.82174205     1.49700
Zn899      Zn  0.76981108  0.73565734  0.80580295     1.49400
Zn900      Zn  0.70581590  0.72953189  0.82048213     1.49100
Zn901      Zn  0.69941112  0.76241342  0.80537134     1.49500
O902        O  0.73321698  0.74856775  0.81339270    -1.81900
O903        O  0.81344921  0.76421294  0.82076835    -0.72500
O904        O  0.76993142  0.70766427  0.80810998    -0.72300
O905        O  0.70748195  0.73591740  0.83396185    -0.71900
O906        O  0.82069546  0.74435256  0.80901619    -0.72500
O907        O  0.74239150  0.76172001  0.83491754    -0.72100
O908        O  0.72670983  0.70308544  0.81873043    -0.72700
O909        O  0.64719426  0.75437343  0.80767463    -0.72100
O910        O  0.76121584  0.74004441  0.79228768    -0.72900
O911        O  0.65161026  0.72996792  0.81726175    -0.72300
O912        O  0.71112323  0.75815860  0.79196489    -0.72700
O913        O  0.70180635  0.79040486  0.80770959    -0.72600
O914        O  0.74344234  0.79357587  0.81883628    -0.72400
C915        C  0.83388045  0.75504404  0.81521677     0.79400
C916        C  0.75219537  0.69688608  0.81351245     0.79900
C917        C  0.72222528  0.74912130  0.83861059     0.78800
C918        C  0.63257102  0.74131445  0.81242588     0.79200
C919        C  0.73668644  0.74914473  0.78789720     0.80300
C920        C  0.72044474  0.80062395  0.81319058     0.79400
Zn921      Zn  0.35915808  0.26692415  0.94285246     1.49700
Zn922      Zn  0.42510154  0.26298851  0.92858062     1.49400
Zn923      Zn  0.41224561  0.23040539  0.94371203     1.49100
Zn924      Zn  0.35639457  0.23551088  0.92674880     1.49500
O925        O  0.38818431  0.24889076  0.93552991    -1.81900
O926        O  0.37533330  0.29403063  0.94071326    -0.72500
O927        O  0.47571077  0.25472681  0.93212812    -0.72300
O928        O  0.40198918  0.23680213  0.95708947    -0.71900
O929        O  0.42196919  0.29092259  0.93090228    -0.72500
O930        O  0.36470148  0.26172134  0.95643759    -0.72100
O931        O  0.46801712  0.23090601  0.94194360    -0.72700
O932        O  0.35461578  0.20765549  0.92954116    -0.72100
O933        O  0.42050976  0.25864794  0.91496768    -0.72900
O934        O  0.39217497  0.20384842  0.94149846    -0.72300
O935        O  0.37294808  0.23904992  0.91352735    -0.72700
O936        O  0.30403342  0.24417314  0.92807975    -0.72600
O937        O  0.30519446  0.26451999  0.93978086    -0.72400
C938        C  0.40102885  0.30110326  0.93584915     0.79400
C939        C  0.48867100  0.24187132  0.93727601     0.79900
C940        C  0.38257038  0.24944854  0.96100150     0.78800
C941        C  0.36930809  0.19728322  0.93565733     0.79200
C942        C  0.39899001  0.24873762  0.91004360     0.80300
C943        C  0.28781597  0.25503551  0.93374349     0.79400
Zn944      Zn  0.92169382  0.26231144  0.94404347     1.49700
Zn945      Zn  0.86342775  0.26556082  0.92753176     1.49400
Zn946      Zn  0.91682582  0.22911135  0.92892766     1.49100
Zn947      Zn  0.85285570  0.23467460  0.94358148     1.49500
O948        O  0.88871064  0.24798954  0.93596004    -1.81900
O949        O  0.91899625  0.29020181  0.94147502    -0.72500
O950        O  0.87784321  0.26006333  0.91428472    -0.72300
O951        O  0.97082735  0.23038046  0.93216157    -0.71900
O952        O  0.87796622  0.29280664  0.93017308    -0.72500
O953        O  0.97412532  0.25439839  0.94203706    -0.72100
O954        O  0.91403532  0.23477073  0.91539381    -0.72700
O955        O  0.85377161  0.20671243  0.94132380    -0.72100
O956        O  0.80771839  0.26318880  0.92884570    -0.72900
O957        O  0.89768451  0.20240687  0.93086362    -0.72300
O958        O  0.80179055  0.24292888  0.94046521    -0.72700
O959        O  0.86097710  0.23924508  0.95708592    -0.72600
O960        O  0.90941855  0.25848233  0.95745481    -0.72400
C961        C  0.90061186  0.30015014  0.93583543     0.79400
C962        C  0.89818451  0.24744723  0.91064257     0.79900
C963        C  0.98927379  0.24157962  0.93722624     0.78800
C964        C  0.87224913  0.19602943  0.93603353     0.79200
C965        C  0.78790255  0.25375625  0.93443726     0.80300
C966        C  0.88445726  0.24900660  0.96149956     0.79400
Zn967      Zn  0.44881106  0.26260081  0.80383224     1.49700
Zn968      Zn  0.51891332  0.23564528  0.80395768     1.49400
Zn969      Zn  0.50752900  0.26588877  0.82023453     1.49100
Zn970      Zn  0.45508626  0.22905536  0.81865611     1.49500
O971        O  0.48257169  0.24833367  0.81172008    -1.81900
O972        O  0.46102545  0.25937058  0.79036013    -0.72500
O973        O  0.56976917  0.24447923  0.80704853    -0.72300
O974        O  0.49170388  0.29298051  0.81794246    -0.71900
O975        O  0.51010324  0.24054048  0.79048270    -0.72500
O976        O  0.45027908  0.29040908  0.80673004    -0.72100
O977        O  0.56323714  0.26423189  0.81886614    -0.72700
O978        O  0.45782180  0.23456710  0.83222809    -0.72100
O979        O  0.51935766  0.20757907  0.80610731    -0.72900
O980        O  0.49363085  0.25999897  0.83342303    -0.72300
O981        O  0.47556603  0.20262987  0.81654353    -0.72700
O982        O  0.40071280  0.22991380  0.81555394    -0.72600
O983        O  0.39662890  0.25422576  0.80590081    -0.72400
C984        C  0.48621041  0.25026357  0.78619016     0.79400
C985        C  0.58332988  0.25523732  0.81316683     0.79900
C986        C  0.46837307  0.30029742  0.81246508     0.78800
C987        C  0.47348077  0.24727278  0.83701940     0.79200
C988        C  0.50133086  0.19661292  0.81136065     0.80300
C989        C  0.38183082  0.24122299  0.81065465     0.79400
Zn990      Zn  0.94564759  0.26282209  0.81882872     1.49700
Zn991      Zn  0.95792198  0.22948076  0.80408403     1.49400
Zn992      Zn  0.01148528  0.26575323  0.80433602     1.49100
Zn993      Zn  0.01453460  0.23575624  0.82088687     1.49500
O994        O  0.98238912  0.24838988  0.81197838    -1.81900
O995        O  0.89488240  0.25492675  0.81515668    -0.72500
O996        O  0.96854812  0.23461656  0.79062688    -0.72300
O997        O  0.99514216  0.29284845  0.80605722    -0.71900
O998        O  0.90220093  0.23052609  0.80565389    -0.72500
O999        O  0.94981460  0.29063832  0.81631476    -0.72100
O1000       O  0.00588411  0.25955487  0.79086240    -0.72700
O1001       O  0.06686630  0.24465585  0.81955792    -0.72100
O1002       O  0.97708221  0.20308451  0.80683773    -0.72900
O1003       O  0.06556610  0.26390421  0.80745386    -0.72300
O1004       O  0.01629849  0.20790323  0.81838645    -0.72700
O1005       O  0.99760603  0.23946153  0.83404669    -0.72600
O1006       O  0.94942973  0.25858459  0.83249713    -0.72400
C1007       C  0.88172089  0.24193124  0.81010967     0.79400
C1008       C  0.98800445  0.24694862  0.78651162     0.79900
C1009       C  0.97027300  0.30035295  0.81103033     0.78800
C1010       C  0.08302569  0.25513290  0.81371832     0.79200
C1011       C  0.00062200  0.19703911  0.81263172     0.80300
C1012       C  0.97109038  0.24888094  0.83747352     0.79400
Zn1013     Zn  0.19789531  0.98902940  0.92870479     1.49700
Zn1014     Zn  0.21062792  0.02095122  0.94417237     1.49400
Zn1015     Zn  0.26352872  0.98446390  0.94306001     1.49100
Zn1016     Zn  0.26693989  0.01629390  0.92723310     1.49500
O1017       O  0.23478927  0.00275095  0.93584818    -1.81900
O1018       O  0.14725507  0.99720484  0.93224256    -0.72500
O1019       O  0.22100678  0.01429145  0.95749827    -0.72300
O1020       O  0.24711502  0.95757606  0.94063244    -0.71900
O1021       O  0.15497970  0.02032986  0.94245847    -0.72500
O1022       O  0.20069664  0.96108056  0.93078930    -0.72100
O1023       O  0.25767460  0.98915428  0.95668718    -0.72700
O1024       O  0.31936640  0.00766492  0.92864924    -0.72100
O1025       O  0.23000179  0.04764685  0.94205724    -0.72900
O1026       O  0.31765902  0.98679915  0.94010447    -0.72300
O1027       O  0.26805009  0.04406778  0.93016947    -0.72700
O1028       O  0.25094064  0.01309128  0.91393937    -0.72600
O1029       O  0.20289796  0.99375195  0.91515181    -0.72400
C1030       C  0.13433325  0.00971287  0.93760444     0.79400
C1031       C  0.24008141  0.00142633  0.96132930     0.79900
C1032       C  0.22147211  0.95072987  0.93567811     0.78800
C1033       C  0.33533566  0.99651577  0.93421556     0.79200
C1034       C  0.25287152  0.05434744  0.93625814     0.80300
C1035       C  0.22478831  0.00365602  0.91033880     0.79400
Zn1036     Zn  0.77060697  0.01570446  0.94515929     1.49700
Zn1037     Zn  0.76020326  0.98589976  0.92871366     1.49400
Zn1038     Zn  0.70159344  0.98839433  0.94527698     1.49100
Zn1039     Zn  0.70643671  0.02190408  0.93047071     1.49500
O1040       O  0.73467085  0.00291586  0.93734839    -1.81900
O1041       O  0.82158403  0.00696708  0.94227504    -0.72500
O1042       O  0.74499021  0.95873784  0.93090612    -0.72300
O1043       O  0.71390358  0.99146669  0.95873146    -0.71900
O1044       O  0.81580021  0.98794651  0.93015568    -0.72500
O1045       O  0.76148813  0.01126570  0.95864625    -0.72100
O1046       O  0.70381782  0.96079413  0.94222252    -0.72700
O1047       O  0.65240673  0.02097278  0.93387217    -0.72100
O1048       O  0.74639786  0.99193016  0.91551286    -0.72900
O1049       O  0.64918331  0.99646364  0.94342880    -0.72300
O1050       O  0.70838558  0.01642891  0.91688330    -0.72700
O1051       O  0.72723278  0.04824801  0.93233413    -0.72600
O1052       O  0.77133349  0.04354279  0.94271815    -0.72400
C1053       C  0.83552806  0.99667417  0.93602940     0.79400
C1054       C  0.72200377  0.95118172  0.93640131     0.79900
C1055       C  0.73826179  0.00109697  0.96292006     0.78800
C1056       C  0.63397226  0.00952563  0.93880609     0.79200
C1057       C  0.72511091  0.00425169  0.91199757     0.80300
C1058       C  0.75337244  0.05432589  0.93737542     0.79400
Zn1059     Zn  0.16954259  0.98878971  0.80432133     1.49700
Zn1060     Zn  0.10039960  0.01612844  0.80455777     1.49400
Zn1061     Zn  0.11166268  0.98617319  0.82095093     1.49100
Zn1062     Zn  0.16476933  0.02255666  0.81911383     1.49500
O1063       O  0.13662565  0.00337190  0.81229206    -1.81900
O1064       O  0.15701986  0.99194446  0.79087914    -0.72500
O1065       O  0.04955836  0.00756494  0.80773188    -0.72300
O1066       O  0.12699799  0.95899085  0.81876664    -0.71900
O1067       O  0.10863520  0.01120804  0.79108010    -0.72500
O1068       O  0.16745483  0.96107584  0.80730680    -0.72100
O1069       O  0.05611181  0.98794068  0.81958473    -0.72700
O1070       O  0.16252705  0.01730900  0.83272512    -0.72100
O1071       O  0.10065293  0.04414203  0.80663161    -0.72900
O1072       O  0.12564014  0.99234040  0.83411503    -0.72300
O1073       O  0.14480446  0.04903998  0.81697803    -0.72700
O1074       O  0.21882399  0.02138484  0.81577645    -0.72600
O1075       O  0.22194707  0.99692378  0.80616370    -0.72400
C1076       C  0.13210921  0.00128889  0.78675038     0.79400
C1077       C  0.03604032  0.99689653  0.81388217     0.79900
C1078       C  0.14965576  0.95142830  0.81318650     0.78800
C1079       C  0.14641010  0.00492838  0.83761448     0.79200
C1080       C  0.11904409  0.05509124  0.81181407     0.80300
C1081       C  0.23720670  0.00995642  0.81081436     0.79400
Zn1082     Zn  0.66160373  0.02115898  0.80530863     1.49700
Zn1083     Zn  0.60509022  0.01644956  0.82228851     1.49400
Zn1084     Zn  0.60757324  0.98517367  0.80619488     1.49100
Zn1085     Zn  0.67358270  0.98894739  0.82058729     1.49500
O1086       O  0.63691120  0.00298984  0.81355100    -1.81900
O1087       O  0.64201596  0.04769882  0.80738809    -0.72500
O1088       O  0.55239303  0.00789104  0.82099160    -0.72300
O1089       O  0.61308050  0.99039542  0.79259825    -0.71900
O1090       O  0.60387408  0.04412713  0.81926574    -0.72500
O1091       O  0.65167121  0.01478129  0.79194900    -0.72100
O1092       O  0.55353232  0.98756723  0.80928693    -0.72700
O1093       O  0.67001243  0.96103544  0.81826708    -0.72100
O1094       O  0.62186519  0.01335015  0.83556439    -0.72900
O1095       O  0.62385418  0.95813958  0.80828643    -0.72300
O1096       O  0.66922073  0.99362472  0.83419900    -0.72700
O1097       O  0.72435874  0.99692682  0.81701331    -0.72600
O1098       O  0.71715774  0.02057942  0.80709146    -0.72400
C1099       C  0.61896266  0.05435292  0.81314995     0.79400
C1100       C  0.53611195  0.99703966  0.81532301     0.79900
C1101       C  0.63161748  0.00241539  0.78803511     0.78800
C1102       C  0.64928320  0.95097720  0.81319935     0.79200
C1103       C  0.64792598  0.00373360  0.83908937     0.80300
C1104       C  0.73756122  0.00962998  0.81181291     0.79400
Zn1105     Zn  0.07081954  0.51189317  0.19437977     1.49700
Zn1106     Zn  0.14083547  0.48501368  0.19449214     1.49400
Zn1107     Zn  0.07716749  0.47796698  0.17979461     1.49100
Zn1108     Zn  0.12973767  0.51458345  0.17798540     1.49500
O1109       O  0.10462779  0.49740519  0.18661044    -1.81900
O1110       O  0.08230190  0.50880496  0.20785868    -0.72500
O1111       O  0.14185271  0.45697929  0.19234600    -0.72300
O1112       O  0.02299811  0.47856793  0.18308734    -0.71900
O1113       O  0.13120045  0.48986853  0.20792399    -0.72500
O1114       O  0.01865016  0.50357082  0.19232962    -0.72100
O1115       O  0.09825117  0.45171158  0.18189591    -0.72700
O1116       O  0.11568186  0.50843276  0.16481493    -0.72100
O1117       O  0.19174049  0.49403768  0.19156318    -0.72900
O1118       O  0.07925520  0.48327802  0.16620084    -0.72300
O1119       O  0.18531004  0.51284144  0.17939914    -0.72700
O1120       O  0.11476484  0.54177036  0.18026798    -0.72600
O1121       O  0.07327944  0.53961074  0.19149523    -0.72400
C1122       C  0.10711411  0.49965367  0.21211945     0.79400
C1123       C  0.12411866  0.44588476  0.18708895     0.79900
C1124       C  0.00401904  0.49013464  0.18782830     0.78800
C1125       C  0.09511929  0.49574715  0.16131555     0.79200
C1126       C  0.20533602  0.50438439  0.18529041     0.80300
C1127       C  0.09185827  0.54930951  0.18579066     0.79400
Zn1128     Zn  0.64245512  0.48524245  0.19383016     1.49700
Zn1129     Zn  0.63013388  0.51544297  0.17759846     1.49400
Zn1130     Zn  0.57724289  0.47897254  0.17942254     1.49100
Zn1131     Zn  0.57312491  0.51236334  0.19442589     1.49500
O1132       O  0.60570622  0.49803616  0.18626264    -1.81900
O1133       O  0.69308859  0.49389563  0.19047390    -0.72500
O1134       O  0.61513226  0.50968604  0.16446934    -0.72300
O1135       O  0.59706887  0.45239451  0.18152287    -0.71900
O1136       O  0.68579156  0.51341944  0.17860856    -0.72500
O1137       O  0.64231949  0.45727010  0.19157694    -0.72100
O1138       O  0.57947242  0.48424856  0.16580218    -0.72700
O1139       O  0.52045494  0.50494015  0.19233354    -0.72100
O1140       O  0.61539747  0.54258411  0.18010578    -0.72900
O1141       O  0.52303662  0.48053724  0.18267512    -0.72300
O1142       O  0.57617118  0.54017141  0.19181861    -0.72700
O1143       O  0.58535612  0.50834637  0.20786156    -0.72600
O1144       O  0.63466854  0.48973096  0.20739855    -0.72400
C1145       C  0.70622804  0.50443967  0.18422046     0.79400
C1146       C  0.59484526  0.49692705  0.16094409     0.79900
C1147       C  0.62342636  0.44633073  0.18650040     0.78800
C1148       C  0.50486761  0.49215436  0.18758831     0.79200
C1149       C  0.59356207  0.54999098  0.18593397     0.80300
C1150       C  0.61076731  0.49911912  0.21187074     0.79400
Zn1151     Zn  0.98179145  0.51627341  0.05518247     1.49700
Zn1152     Zn  0.03528253  0.48000085  0.05482833     1.49400
Zn1153     Zn  0.04685709  0.51302293  0.06978535     1.49100
Zn1154     Zn  0.97825586  0.48565856  0.07152108     1.49500
O1155       O  0.01050895  0.49867969  0.06277603    -1.81900
O1156       O  0.98792567  0.51039559  0.04168724    -0.72500
O1157       O  0.09071804  0.48099122  0.05660158    -0.72300
O1158       O  0.04285406  0.54085220  0.06743775    -0.71900
O1159       O  0.02538965  0.48552196  0.04139303    -0.72500
O1160       O  0.99795349  0.54337881  0.05709535    -0.72100
O1161       O  0.09771133  0.50522712  0.06622294    -0.72700
O1162       O  0.99468906  0.48912536  0.08474386    -0.72100
O1163       O  0.01635695  0.45346920  0.05731662    -0.72900
O1164       O  0.04250625  0.50856874  0.08340522    -0.72300
O1165       O  0.97684347  0.45782003  0.06884058    -0.72700
O1166       O  0.92598151  0.49453311  0.07011299    -0.72600
O1167       O  0.92767706  0.51425927  0.05818741    -0.72400
C1168       C  0.00605559  0.49792985  0.03730649     0.79400
C1169       C  0.11100614  0.49228473  0.06117007     0.79900
C1170       C  0.02263663  0.55072886  0.06218102     0.78800
C1171       C  0.02084714  0.49864723  0.08828033     0.79200
C1172       C  0.99279791  0.44716532  0.06303888     0.80300
C1173       C  0.91002864  0.50521733  0.06433036     0.79400
Zn1174     Zn  0.54316600  0.51313947  0.05458526     1.49700
Zn1175     Zn  0.48513992  0.51570807  0.07121382     1.49400
Zn1176     Zn  0.47400797  0.48570780  0.05479255     1.49100
Zn1177     Zn  0.53833663  0.47935489  0.06936748     1.49500
O1178       O  0.51020368  0.49853404  0.06254277    -1.81900
O1179       O  0.54035322  0.54093760  0.05746487    -0.72500
O1180       O  0.42950436  0.51343376  0.06998877    -0.72300
O1181       O  0.48237195  0.49050220  0.04129904    -0.71900
O1182       O  0.49990274  0.54301641  0.06893211    -0.72500
O1183       O  0.53108532  0.50957473  0.04110744    -0.72100
O1184       O  0.42309035  0.49406228  0.05801272    -0.72700
O1185       O  0.51874540  0.45280587  0.06712311    -0.72100
O1186       O  0.49957784  0.50966839  0.08436515    -0.72900
O1187       O  0.47429825  0.45769868  0.05686609    -0.72300
O1188       O  0.53570410  0.48441710  0.08299665    -0.72700
O1189       O  0.59248906  0.48078852  0.06616534    -0.72600
O1190       O  0.59574054  0.50530574  0.05660801    -0.72400
C1191       C  0.52238928  0.55061013  0.06331420     0.79400
C1192       C  0.40947880  0.50444415  0.06427300     0.79900
C1193       C  0.50613247  0.50023691  0.03696738     0.78800
C1194       C  0.49286999  0.44674185  0.06198975     0.79200
C1195       C  0.51993152  0.49693718  0.08787843     0.80300
C1196       C  0.61096079  0.49230822  0.06128168     0.79400
Zn1197     Zn  0.29548303  0.23776875  0.17833920     1.49700
Zn1198     Zn  0.23017154  0.23270039  0.19271211     1.49400
Zn1199     Zn  0.28221979  0.26967090  0.19378171     1.49100
Zn1200     Zn  0.22562407  0.26470641  0.17698489     1.49500
O1201       O  0.25832428  0.25126319  0.18550229    -1.81900
O1202       O  0.29335991  0.20968381  0.18036085    -0.72500
O1203       O  0.23630304  0.23748293  0.20631251    -0.72300
O1204       O  0.33791633  0.26916223  0.19222343    -0.71900
O1205       O  0.24739112  0.20586982  0.19030804    -0.72500
O1206       O  0.34593616  0.24605393  0.18201704    -0.72100
O1207       O  0.27183237  0.26307512  0.20705249    -0.72700
O1208       O  0.22409221  0.29249421  0.17991398    -0.72100
O1209       O  0.17576601  0.23479666  0.18989596    -0.72900
O1210       O  0.26259665  0.29629141  0.19168377    -0.72300
O1211       O  0.17331454  0.25588620  0.17854674    -0.72700
O1212       O  0.24148729  0.26164403  0.16367707    -0.72600
O1213       O  0.29039702  0.24284396  0.16479937    -0.72400
C1214       C  0.27311550  0.19917847  0.18532477     0.79400
C1215       C  0.25341212  0.25000595  0.21090930     0.79900
C1216       C  0.35870738  0.25851811  0.18742799     0.78800
C1217       C  0.23937456  0.30286726  0.18594778     0.79200
C1218       C  0.15768679  0.24460990  0.18412103     0.80300
C1219       C  0.26802787  0.25256856  0.16003360     0.79400
Zn1220     Zn  0.72556589  0.26500567  0.17653881     1.49700
Zn1221     Zn  0.78260236  0.27097703  0.19324342     1.49400
Zn1222     Zn  0.72941011  0.23437718  0.19283752     1.49100
Zn1223     Zn  0.79495434  0.23789047  0.17841084     1.49500
O1224       O  0.75809699  0.25213499  0.18531213    -1.81900
O1225       O  0.72385556  0.29287088  0.17914331    -0.72500
O1226       O  0.77196416  0.26550431  0.20665998    -0.72300
O1227       O  0.67519162  0.23634698  0.18986474    -0.71900
O1228       O  0.76320231  0.29744370  0.19067910    -0.72500
O1229       O  0.67313103  0.25622477  0.17801034    -0.72100
O1230       O  0.73510041  0.24036876  0.20632651    -0.72700
O1231       O  0.79156583  0.20996137  0.18078002    -0.72100
O1232       O  0.83837384  0.27013319  0.19159150    -0.72900
O1233       O  0.74603289  0.20728379  0.19094249    -0.72300
O1234       O  0.84575075  0.24598990  0.18194290    -0.72700
O1235       O  0.79052247  0.24235574  0.16483410    -0.72600
O1236       O  0.74221481  0.26144506  0.16333559    -0.72400
C1237       C  0.73954337  0.30362086  0.18494831     0.79400
C1238       C  0.75267706  0.25302454  0.21072219     0.79900
C1239       C  0.65731464  0.24550577  0.18380786     0.78800
C1240       C  0.77116703  0.20000010  0.18596767     0.79200
C1241       C  0.85889424  0.25893151  0.18702306     0.80300
C1242       C  0.76879151  0.25207823  0.15989441     0.79400
Zn1243     Zn  0.32175972  0.23804422  0.06868101     1.49700
Zn1244     Zn  0.38804769  0.23463344  0.05447641     1.49400
Zn1245     Zn  0.33498259  0.27118286  0.05388454     1.49100
Zn1246     Zn  0.39031973  0.26541508  0.07087742     1.49500
O1247       O  0.35884850  0.25236861  0.06192109    -1.81900
O1248       O  0.32552383  0.21012618  0.06632713    -0.72500
O1249       O  0.38246872  0.24031534  0.04089667    -0.72300
O1250       O  0.27930597  0.27062042  0.05550277    -0.71900
O1251       O  0.37235118  0.20736159  0.05654562    -0.72500
O1252       O  0.27133338  0.24631512  0.06501756    -0.72100
O1253       O  0.34568419  0.26545920  0.04049476    -0.72700
O1254       O  0.39208672  0.29329783  0.06830749    -0.72100
O1255       O  0.44198120  0.23713885  0.05763097    -0.72900
O1256       O  0.35453298  0.29763359  0.05639589    -0.72300
O1257       O  0.44275198  0.25677476  0.06962187    -0.72700
O1258       O  0.37300436  0.26169954  0.08402005    -0.72600
O1259       O  0.32536261  0.24225728  0.08230943    -0.72400
C1260       C  0.34681076  0.20009009  0.06139913     0.79400
C1261       C  0.36491487  0.25291581  0.03645797     0.79900
C1262       C  0.25854735  0.25941614  0.05999213     0.78800
C1263       C  0.37729980  0.30393228  0.06232028     0.79200
C1264       C  0.45916898  0.24625701  0.06383793     0.80300
C1265       C  0.34658270  0.25206764  0.08735572     0.79400
Zn1266     Zn  0.89497527  0.26620583  0.05449138     1.49700
Zn1267     Zn  0.83089274  0.27170672  0.06921342     1.49400
Zn1268     Zn  0.82630610  0.23850757  0.05417382     1.49100
Zn1269     Zn  0.88507769  0.23562124  0.07058943     1.49500
O1270       O  0.85927521  0.25297157  0.06217378    -1.81900
O1271       O  0.89478204  0.29404909  0.05701432    -0.72500
O1272       O  0.77674935  0.27040410  0.06595893    -0.72300
O1273       O  0.83771371  0.24258733  0.04074659    -0.71900
O1274       O  0.85052759  0.29837659  0.06739657    -0.72500
O1275       O  0.88578376  0.26207765  0.04098333    -0.72100
O1276       O  0.77370609  0.24596094  0.05633297    -0.72700
O1277       O  0.87109377  0.20842333  0.06800704    -0.72100
O1278       O  0.83362105  0.26582844  0.08273327    -0.72900
O1279       O  0.83009678  0.21066922  0.05667804    -0.72300
O1280       O  0.87100681  0.24099386  0.08381938    -0.72700
O1281       O  0.94056267  0.23792908  0.06920253    -0.72600
O1282       O  0.94612360  0.25757481  0.05733245    -0.72400
C1283       C  0.87637216  0.30470695  0.06233222     0.79400
C1284       C  0.75838234  0.25888389  0.06104094     0.79900
C1285       C  0.86216907  0.25227431  0.03663265     0.78800
C1286       C  0.84876522  0.20090490  0.06233347     0.79200
C1287       C  0.85009438  0.25333226  0.08746837     0.80300
C1288       C  0.96017859  0.24695916  0.06342626     0.79400
Zn1289     Zn  0.39526845  0.98477755  0.19394755     1.49700
Zn1290     Zn  0.32581010  0.01161946  0.19445465     1.49400
Zn1291     Zn  0.38278438  0.01440161  0.17751664     1.49100
Zn1292     Zn  0.32996472  0.97810051  0.17949688     1.49500
O1293       O  0.35838393  0.99725436  0.18629935    -1.81900
O1294       O  0.38750304  0.98932067  0.20753302    -0.72500
O1295       O  0.32920331  0.03940151  0.19174775    -0.72300
O1296       O  0.43840468  0.01252289  0.17854450    -0.71900
O1297       O  0.33782493  0.00765951  0.20794585    -0.72500
O1298       O  0.44589139  0.99339275  0.19054898    -0.72100
O1299       O  0.36785420  0.04153504  0.17989165    -0.72700
O1300       O  0.33302827  0.98269316  0.16581007    -0.72100
O1301       O  0.27306188  0.00425283  0.19231337    -0.72900
O1302       O  0.36833360  0.00822351  0.16439648    -0.72300
O1303       O  0.27565767  0.97998035  0.18257519    -0.72700
O1304       O  0.34932959  0.95161823  0.18190819    -0.72600
O1305       O  0.39509237  0.95685416  0.19178458    -0.72400
C1306       C  0.36335567  0.99857335  0.21199108     0.79400
C1307       C  0.34636919  0.04907977  0.18576087     0.79900
C1308       C  0.45892871  0.00375631  0.18421191     0.78800
C1309       C  0.34852089  0.99524548  0.16089832     0.79200
C1310       C  0.25747194  0.99157478  0.18749559     0.80300
C1311       C  0.37591736  0.94575607  0.18686239     0.79400
Zn1312     Zn  0.89557953  0.98536219  0.19440914     1.49700
Zn1313     Zn  0.88219493  0.01582910  0.17844525     1.49400
Zn1314     Zn  0.83062658  0.97878101  0.18005947     1.49100
Zn1315     Zn  0.82486398  0.01182247  0.19506035     1.49500
O1316       O  0.85834491  0.99798431  0.18694792    -1.81900
O1317       O  0.94610929  0.99433636  0.19106563    -0.72500
O1318       O  0.86743588  0.01012532  0.16533021    -0.72300
O1319       O  0.85016511  0.95235142  0.18226100    -0.71900
O1320       O  0.93789119  0.01428540  0.17941400    -0.72500
O1321       O  0.89568424  0.95736547  0.19221673    -0.72100
O1322       O  0.83364348  0.98398121  0.16651922    -0.72700
O1323       O  0.77249457  0.00411920  0.19279385    -0.72100
O1324       O  0.86658987  0.04278270  0.18110777    -0.72900
O1325       O  0.77634376  0.97999709  0.18301249    -0.72300
O1326       O  0.82716519  0.03976495  0.19273710    -0.72700
O1327       O  0.83679336  0.00744632  0.20841209    -0.72600
O1328       O  0.88749027  0.98978955  0.20791969    -0.72400
C1329       C  0.95876881  0.00525346  0.18490066     0.79400
C1330       C  0.84822107  0.99701242  0.16174488     0.79900
C1331       C  0.87656784  0.94636371  0.18722559     0.78800
C1332       C  0.75757046  0.99135807  0.18790799     0.79200
C1333       C  0.84444391  0.04988218  0.18695360     0.80300
C1334       C  0.86281773  0.99863795  0.21238651     0.79400
Zn1335     Zn  0.23875628  0.01513313  0.07102046     1.49700
Zn1336     Zn  0.29630696  0.01157674  0.05427462     1.49400
Zn1337     Zn  0.29102457  0.97847143  0.06939637     1.49100
Zn1338     Zn  0.22651306  0.98473703  0.05478914     1.49500
O1339       O  0.26316888  0.99753150  0.06242127    -1.81900
O1340       O  0.25360040  0.04225851  0.06834697    -0.72500
O1341       O  0.34865054  0.00325243  0.05617256    -0.72300
O1342       O  0.28927635  0.98414243  0.08298975    -0.71900
O1343       O  0.29439867  0.03944523  0.05698752    -0.72500
O1344       O  0.25404710  0.00975162  0.08419538    -0.72100
O1345       O  0.34499098  0.97924874  0.06602211    -0.72700
O1346       O  0.22707324  0.95673558  0.05691304    -0.72100
O1347       O  0.28359813  0.00791776  0.04083266    -0.72900
O1348       O  0.27084976  0.95201420  0.06737545    -0.72300
O1349       O  0.23410664  0.98941612  0.04120464    -0.72700
O1350       O  0.17578927  0.99314404  0.05824937    -0.72600
O1351       O  0.18295460  0.01289113  0.07005491    -0.72400
C1352       C  0.27635908  0.04947288  0.06267845     0.79400
C1353       C  0.36362001  0.99032881  0.06094320     0.79900
C1354       C  0.27422637  0.99703503  0.08778436     0.78800
C1355       C  0.24532575  0.94587325  0.06215766     0.79200
C1356       C  0.25810662  0.99882167  0.03677264     0.80300
C1357       C  0.16255281  0.00371592  0.06448900     0.79400
Zn1358     Zn  0.78724302  0.97988671  0.05548090     1.49700
Zn1359     Zn  0.73435930  0.01659803  0.05604296     1.49400
Zn1360     Zn  0.73087832  0.98598457  0.07227167     1.49100
Zn1361     Zn  0.80073874  0.01274351  0.07029403     1.49500
O1362       O  0.76328792  0.99876805  0.06346639    -1.81900
O1363       O  0.77634273  0.98547150  0.04214016    -0.72500
O1364       O  0.67998639  0.01424177  0.05889642    -0.72300
O1365       O  0.72932013  0.95811805  0.06980270    -0.71900
O1366       O  0.74019662  0.01086591  0.04253926    -0.72500
O1367       O  0.76743725  0.95355139  0.05801409    -0.72100
O1368       O  0.67835490  0.99435077  0.07074053    -0.72700
O1369       O  0.79614323  0.00862190  0.08391401    -0.72100
O1370       O  0.75093777  0.04367177  0.05809553    -0.72900
O1371       O  0.74718183  0.98995690  0.08543248    -0.72300
O1372       O  0.79783452  0.04060451  0.06784517    -0.72700
O1373       O  0.85131569  0.00426425  0.06673027    -0.72600
O1374       O  0.84304018  0.98031466  0.05701779    -0.72400
C1375       C  0.75734629  0.99809732  0.03811990     0.79400
C1376       C  0.66228331  0.00488584  0.06491988     0.79900
C1377       C  0.74432610  0.94738904  0.06388379     0.78800
C1378       C  0.77387371  0.99923424  0.08886891     0.79200
C1379       C  0.77688971  0.05074004  0.06288589     0.80300
C1380       C  0.86398174  0.99127784  0.06160180     0.79400
Zn1381     Zn  0.97219061  0.76452179  0.19483158     1.49700
Zn1382     Zn  0.98390211  0.73401865  0.17869278     1.49400
Zn1383     Zn  0.03606470  0.77081274  0.18010603     1.49100
Zn1384     Zn  0.04216245  0.73771052  0.19518471     1.49500
O1385       O  0.00862042  0.75173110  0.18715408    -1.81900
O1386       O  0.92160803  0.75536419  0.19184343    -0.72500
O1387       O  0.99735569  0.73970291  0.16546071    -0.72300
O1388       O  0.01550499  0.79721497  0.18207843    -0.71900
O1389       O  0.92837058  0.73540876  0.18011368    -0.72500
O1390       O  0.97133138  0.79243126  0.19243555    -0.72100
O1391       O  0.03327200  0.76509998  0.16654480    -0.72700
O1392       O  0.09433235  0.74609859  0.19314384    -0.72100
O1393       O  0.99999402  0.70709241  0.18108407    -0.72900
O1394       O  0.09038544  0.77002313  0.18325648    -0.72300
O1395       O  0.04082378  0.70988053  0.19242290    -0.72700
O1396       O  0.02971019  0.74123826  0.20862596    -0.72600
O1397       O  0.98092617  0.76023904  0.20834807    -0.72400
C1398       C  0.90822340  0.74440491  0.18579117     0.79400
C1399       C  0.01748591  0.75235632  0.16180300     0.79900
C1400       C  0.98947759  0.80328653  0.18715912     0.78800
C1401       C  0.10919002  0.75892694  0.18828988     0.79200
C1402       C  0.02304632  0.69990169  0.18666610     0.80300
C1403       C  0.00466185  0.75057873  0.21272078     0.79400
Zn1404     Zn  0.53457881  0.77033924  0.19489409     1.49700
Zn1405     Zn  0.47782875  0.76548421  0.17805868     1.49400
Zn1406     Zn  0.54620035  0.73788024  0.17971713     1.49100
Zn1407     Zn  0.48033358  0.73425825  0.19408098     1.49500
O1408       O  0.50969019  0.75205225  0.18674453    -1.81900
O1409       O  0.51602121  0.79702274  0.19262309    -0.72500
O1410       O  0.49445386  0.76223803  0.16482831    -0.72300
O1411       O  0.59701634  0.74552784  0.18333398    -0.71900
O1412       O  0.47711842  0.79321730  0.18092713    -0.72500
O1413       O  0.59014392  0.76930754  0.19321801    -0.72100
O1414       O  0.54209512  0.74268595  0.16615298    -0.72700
O1415       O  0.49587608  0.70714920  0.19182968    -0.72100
O1416       O  0.42512899  0.75709831  0.17940102    -0.72900
O1417       O  0.54207091  0.71000213  0.18186170    -0.72300
O1418       O  0.42616804  0.73690203  0.19113550    -0.72700
O1419       O  0.48651631  0.73943453  0.20764502    -0.72600
O1420       O  0.52405362  0.76428269  0.20823560    -0.72400
C1421       C  0.49287890  0.80360451  0.18687340     0.79400
C1422       C  0.52065520  0.75274186  0.16129430     0.79900
C1423       C  0.61038393  0.75819980  0.18853102     0.78800
C1424       C  0.52107710  0.69995269  0.18684904     0.79200
C1425       C  0.40878042  0.74637222  0.18510172     0.80300
C1426       C  0.50453813  0.75173166  0.21217026     0.79400
Zn1427     Zn  0.07210989  0.73819431  0.07045353     1.49700
Zn1428     Zn  0.13842126  0.73494581  0.05620920     1.49400
Zn1429     Zn  0.08455367  0.77106359  0.05553617     1.49100
Zn1430     Zn  0.14052872  0.76577601  0.07253424     1.49500
O1431       O  0.10897654  0.75257082  0.06364304    -1.81900
O1432       O  0.07560037  0.71038027  0.06790041    -0.72500
O1433       O  0.13291044  0.74047712  0.04266820    -0.72300
O1434       O  0.02888671  0.77016425  0.05710753    -0.71900
O1435       O  0.12245253  0.70780675  0.05810895    -0.72500
O1436       O  0.02147824  0.74626128  0.06687739    -0.72100
O1437       O  0.09530813  0.76526880  0.04216719    -0.72700
O1438       O  0.14148741  0.79364794  0.06983891    -0.72100
O1439       O  0.19242722  0.73750418  0.05926147    -0.72900
O1440       O  0.10367426  0.79758503  0.05793213    -0.72300
O1441       O  0.19337198  0.75754201  0.07108628    -0.72700
O1442       O  0.12362337  0.76186814  0.08576109    -0.72600
O1443       O  0.07622448  0.74223573  0.08408856    -0.72400
C1444       C  0.09671989  0.70048196  0.06286509     0.79400
C1445       C  0.11496640  0.75283638  0.03818499     0.79900
C1446       C  0.00838131  0.75903517  0.06170934     0.78800
C1447       C  0.12649055  0.80407830  0.06379284     0.79200
C1448       C  0.20976980  0.74695935  0.06531799     0.80300
C1449       C  0.09746462  0.75205796  0.08912726     0.79400
Zn1450     Zn  0.57165985  0.73964525  0.07024245     1.49700
Zn1451     Zn  0.64198655  0.76630393  0.07170329     1.49400
Zn1452     Zn  0.63653248  0.73491131  0.05569799     1.49100
Zn1453     Zn  0.58468178  0.77198525  0.05507023     1.49500
O1454       O  0.60877870  0.75327269  0.06313115    -1.81900
O1455       O  0.57644486  0.74485075  0.08376854    -0.72500
O1456       O  0.69420182  0.75721570  0.07004916    -0.72300
O1457       O  0.61956017  0.70798294  0.05802951    -0.71900
O1458       O  0.62585461  0.76328824  0.08500628    -0.72500
O1459       O  0.57442312  0.71151084  0.06824211    -0.72100
O1460       O  0.69097191  0.73673353  0.05843391    -0.72700
O1461       O  0.59503740  0.76599780  0.04170815    -0.72100
O1462       O  0.64373040  0.79412552  0.06895748    -0.72900
O1463       O  0.63030763  0.74028856  0.04215110    -0.72300
O1464       O  0.60420441  0.79848101  0.05745093    -0.72700
O1465       O  0.52903699  0.77157522  0.05675511    -0.72600
O1466       O  0.52105118  0.74796027  0.06666119    -0.72400
C1467       C  0.59884894  0.75446516  0.08858503     0.79400
C1468       C  0.70942317  0.74610831  0.06431300     0.79900
C1469       C  0.59452300  0.70111583  0.06317374     0.78800
C1470       C  0.61341433  0.75308971  0.03769991     0.79200
C1471       C  0.62787973  0.80477750  0.06314886     0.80300
C1472       C  0.50825606  0.76077481  0.06146312     0.79400
C1473       C  0.82113530  0.74896845  0.06315221     0.19300
C1474       C  0.83796052  0.76239443  0.06885427    -0.09900
C1475       C  0.87572848  0.76595818  0.06808631    -0.10700
C1476       C  0.89683501  0.75616389  0.06158432     0.20800
C1477       C  0.88005819  0.74268812  0.05589257    -0.12700
C1478       C  0.84224845  0.73912425  0.05665935    -0.11000
C1479       C  0.93594835  0.75928392  0.06105176     0.01800
C1480       C  0.96908164  0.76042075  0.06104155    -0.31000
C1481       C  0.78200251  0.74592422  0.06376557     0.03200
C1482       C  0.74887584  0.74494938  0.06417545    -0.32700
H1483       H  0.82185256  0.77014662  0.07386859     0.14200
H1484       H  0.88847648  0.77628381  0.07257486     0.14000
H1485       H  0.89620937  0.73491357  0.05089509     0.13900
H1486       H  0.82949327  0.72877376  0.05218617     0.12900
C1487       C  0.39665293  0.75895863  0.06171279     0.19300
C1488       C  0.38067089  0.74316517  0.05748384    -0.09900
C1489       C  0.34301623  0.73954250  0.05853840    -0.10700
C1490       C  0.32119667  0.75166655  0.06385675     0.20800
C1491       C  0.33712929  0.76751952  0.06804623    -0.12700
C1492       C  0.37479729  0.77114079  0.06699324    -0.11000
C1493       C  0.28229243  0.74822446  0.06480139     0.01800
C1494       C  0.24927888  0.74662308  0.06530077    -0.31000
C1495       C  0.43578992  0.76195222  0.06104466     0.03200
C1496       C  0.46897756  0.76266600  0.06091418    -0.32700
H1497       H  0.39738174  0.73357292  0.05344225     0.14200
H1498       H  0.33095362  0.72730572  0.05522679     0.14000
H1499       H  0.32045034  0.77704707  0.07213202     0.13900
H1500       H  0.38690839  0.78331215  0.07035051     0.12900
C1501       C  0.57216037  0.75603005  0.11580409     0.19300
C1502       C  0.53543697  0.76039954  0.11793590    -0.09900
C1503       C  0.52326149  0.75984897  0.12706753    -0.10700
C1504       C  0.54774869  0.75491266  0.13411379     0.20800
C1505       C  0.58448950  0.75060848  0.13198416    -0.12700
C1506       C  0.59665989  0.75115858  0.12285640    -0.11000
C1507       C  0.53542190  0.75428378  0.14353095     0.01800
C1508       C  0.52710079  0.75364761  0.15155957    -0.31000
C1509       C  0.58431337  0.75604807  0.10636428     0.03200
C1510       C  0.59261922  0.75557357  0.09832906    -0.32700
H1511       H  0.51619494  0.76412419  0.11253790     0.14200
H1512       H  0.49481100  0.76321317  0.12862655     0.14000
H1513       H  0.60368561  0.74678059  0.13737546     0.13900
H1514       H  0.62506062  0.74769067  0.12129562     0.12900
C1515       C  0.79696213  0.74708382  0.18643048     0.19300
C1516       C  0.78264595  0.75393296  0.19474179    -0.09900
C1517       C  0.74504280  0.75789094  0.19553038    -0.10700
C1518       C  0.72167100  0.75507006  0.18799604     0.20800
C1519       C  0.73599242  0.74822522  0.17968305    -0.12700
C1520       C  0.77359805  0.74426756  0.17889443    -0.11000
C1521       C  0.68277388  0.75843530  0.18884274     0.01800
C1522       C  0.64968113  0.75958336  0.18907458    -0.31000
C1523       C  0.83586428  0.74377388  0.18557993     0.03200
C1524       C  0.86896331  0.74276822  0.18532703    -0.32700
H1525       H  0.80057507  0.75627562  0.20059192     0.14200
H1526       H  0.73420433  0.76307593  0.20199974     0.14000
H1527       H  0.71806987  0.74589666  0.17383051     0.13900
H1528       H  0.78444623  0.73909718  0.17242307     0.12900
C1529       C  0.29701675  0.75002436  0.18580301     0.19300
C1530       C  0.28315935  0.76841906  0.18663870    -0.09900
C1531       C  0.24516608  0.77145206  0.18730862    -0.10700
C1532       C  0.22087713  0.75609290  0.18715391     0.20800
C1533       C  0.23473018  0.73769776  0.18630870    -0.12700
C1534       C  0.27272329  0.73466468  0.18563917    -0.11000
C1535       C  0.18174084  0.75907533  0.18780216     0.01800
C1536       C  0.14862389  0.76014401  0.18817525    -0.31000
C1537       C  0.33617124  0.74702401  0.18523674     0.03200
C1538       C  0.36928420  0.74575741  0.18499570    -0.32700
H1539       H  0.30173000  0.78039853  0.18678923     0.14200
H1540       H  0.23475978  0.78572614  0.18794919     0.14000
H1541       H  0.21616209  0.72571594  0.18617197     0.13900
H1542       H  0.28313117  0.72038791  0.18501282     0.12900
C1543       C  0.06975038  0.75162457  0.11632430     0.19300
C1544       C  0.09296749  0.75779112  0.12341318    -0.09900
C1545       C  0.08052678  0.75774598  0.13252413    -0.10700
C1546       C  0.04478610  0.75154777  0.13460878     0.20800
C1547       C  0.02161417  0.74526693  0.12753037    -0.12700
C1548       C  0.03406347  0.74531123  0.11841319    -0.11000
C1549       C  0.03218590  0.75165333  0.14401491     0.01800
C1550       C  0.02384323  0.75193859  0.15205076    -0.31000
C1551       C  0.08222585  0.75199681  0.10690288     0.03200
C1552       C  0.09083837  0.75222127  0.09887946    -0.32700
H1553       H  0.12058783  0.76270124  0.12189572     0.14200
H1554       H  0.09873005  0.76259463  0.13793952     0.14000
H1555       H  0.99396519  0.74040117  0.12905163     0.13900
H1556       H  0.01583798  0.74050531  0.11299374     0.12900
C1557       C  0.66771063  0.85859578  0.06293435     0.19300
C1558       C  0.65352036  0.87316805  0.06841329    -0.09900
C1559       C  0.67106044  0.89077693  0.06863294    -0.10700
C1560       C  0.70294528  0.89390534  0.06339299     0.20800
C1561       C  0.71711637  0.87933893  0.05791648    -0.12700
C1562       C  0.69958249  0.86173849  0.05769621    -0.11000
C1563       C  0.72059604  0.91215418  0.06352242     0.01800
C1564       C  0.73333753  0.92790065  0.06365030    -0.31000
C1565       C  0.65038217  0.84025400  0.06286414     0.03200
C1566       C  0.63824657  0.82437237  0.06290045    -0.32700
H1567       H  0.62901795  0.87090473  0.07252861     0.14200
H1568       H  0.65977094  0.90194215  0.07287795     0.14000
H1569       H  0.74167115  0.88158562  0.05381854     0.13900
H1570       H  0.71093485  0.85056573  0.05346737     0.12900
C1571       C  0.47526095  0.99265148  0.06199344     0.19300
C1572       C  0.49367345  0.98846698  0.07021118    -0.09900
C1573       C  0.53138103  0.99220627  0.07104872    -0.10700
C1574       C  0.55077058  0.00021633  0.06368516     0.20800
C1575       C  0.53236896  0.00432458  0.05545851    -0.12700
C1576       C  0.49468024  0.00058419  0.05462097    -0.11000
C1577       C  0.58974452  0.00362982  0.06445119     0.01800
C1578       C  0.62277384  0.00527166  0.06484589    -0.31000
C1579       C  0.43613458  0.98977140  0.06128694     0.03200
C1580       C  0.40300602  0.98893755  0.06092517    -0.32700
H1581       H  0.47885002  0.98245582  0.07597783     0.14200
H1582       H  0.54539100  0.98886807  0.07742231     0.14000
H1583       H  0.54714120  0.01041379  0.04970377     0.13900
H1584       H  0.48064194  0.00399876  0.04826059     0.12900
C1585       C  0.05104063  0.00033445  0.06419905     0.19300
C1586       C  0.03201948  0.00747154  0.05657231    -0.09900
C1587       C  0.99441410  0.00373219  0.05548436    -0.10700
C1588       C  0.97567027  0.99276694  0.06199727     0.20800
C1589       C  0.99473255  0.98555067  0.06960246    -0.12700
C1590       C  0.03235125  0.98928938  0.07069002    -0.11000
C1591       C  0.93648873  0.98997250  0.06119337     0.01800
C1592       C  0.90327925  0.98934419  0.06101763    -0.31000
C1593       C  0.09006287  0.00352893  0.06509197     0.03200
C1594       C  0.12319807  0.00477335  0.06524772    -0.32700
H1595       H  0.04626430  0.01588632  0.05146701     0.14200
H1596       H  0.97990475  0.00951100  0.04961554     0.14000
H1597       H  0.98046295  0.97718013  0.07472020     0.13900
H1598       H  0.04685224  0.98355541  0.07657052     0.12900
C1599       C  0.20613144  0.89202781  0.06243846     0.19300
C1600       C  0.20744798  0.88073266  0.07033554    -0.09900
C1601       C  0.18891795  0.86340599  0.07053391    -0.10700
C1602       C  0.16885248  0.85728490  0.06285097     0.20800
C1603       C  0.16773436  0.86852033  0.05492629    -0.12700
C1604       C  0.18627301  0.88585706  0.05472802    -0.11000
C1605       C  0.15037112  0.83925480  0.06305129     0.01800
C1606       C  0.13734506  0.82357801  0.06335633    -0.31000
C1607       C  0.22362548  0.91030987  0.06238754     0.03200
C1608       C  0.23559404  0.92621226  0.06233778    -0.32700
H1609       H  0.22253789  0.88537978  0.07635389     0.14200
H1610       H  0.19018703  0.85479733  0.07668079     0.14000
H1611       H  0.15252008  0.86390281  0.04892221     0.13900
H1612       H  0.18489139  0.89450710  0.04859612     0.12900
C1613       C  0.94996555  0.85709116  0.18659847     0.19300
C1614       C  0.92883137  0.86293621  0.17904852    -0.09900
C1615       C  0.91131614  0.88054181  0.17916950    -0.10700
C1616       C  0.91476043  0.89236208  0.18685515     0.20800
C1617       C  0.93587679  0.88651010  0.19440059    -0.12700
C1618       C  0.95338468  0.86891941  0.19427906    -0.11000
C1619       C  0.89784960  0.91076233  0.18690084     0.01800
C1620       C  0.88621508  0.92671290  0.18702153    -0.31000
C1621       C  0.96700258  0.83870927  0.18660734     0.03200
C1622       C  0.97911144  0.82284537  0.18678097    -0.32700
H1623       H  0.92581560  0.85387227  0.17308985     0.14200
H1624       H  0.89522708  0.88495125  0.17327615     0.14000
H1625       H  0.93889985  0.89556901  0.20036152     0.13900
H1626       H  0.96947110  0.86452328  0.20017514     0.12900
C1627       C  0.79842608  0.99793530  0.11618062     0.19300
C1628       C  0.77836545  0.00783735  0.12285327    -0.09900
C1629       C  0.78987077  0.00762616  0.13203258    -0.10700
C1630       C  0.82150630  0.99754203  0.13456716     0.20800
C1631       C  0.84145840  0.98757465  0.12790304    -0.12700
C1632       C  0.82995652  0.98778429  0.11872763    -0.11000
C1633       C  0.83324269  0.99733237  0.14401196     0.01800
C1634       C  0.84152939  0.99718854  0.15203427    -0.31000
C1635       C  0.78724458  0.99844510  0.10669206     0.03200
C1636       C  0.77978200  0.99883843  0.09861782    -0.32700
H1637       H  0.75398918  0.01575829  0.12095725     0.14200
H1638       H  0.77418453  0.01534079  0.13714202     0.14000
H1639       H  0.86589107  0.97969346  0.12979394     0.13900
H1640       H  0.84570665  0.98010685  0.11361759     0.12900
C1641       C  0.57031792  0.00077407  0.18419419     0.19300
C1642       C  0.58334954  0.98515110  0.18912807    -0.09900
C1643       C  0.62122323  0.98206732  0.19000253    -0.10700
C1644       C  0.64619996  0.99459518  0.18593782     0.20800
C1645       C  0.63318675  0.01019620  0.18098132    -0.12700
C1646       C  0.59528833  0.01328370  0.18010729    -0.11000
C1647       C  0.68517733  0.99167667  0.18693216     0.01800
C1648       C  0.71817848  0.99049838  0.18757344    -0.31000
C1649       C  0.53130272  0.00390185  0.18345705     0.03200
C1650       C  0.49818591  0.00500096  0.18341773    -0.32700
H1651       H  0.56422465  0.97540428  0.19232434     0.14200
H1652       H  0.63100685  0.96999376  0.19386339     0.14000
H1653       H  0.65232961  0.01999177  0.17782824     0.13900
H1654       H  0.58549162  0.02541078  0.17628957     0.12900
C1655       C  0.07037761  0.00343218  0.18459022     0.19300
C1656       C  0.08871262  0.00674033  0.19291548    -0.09900
C1657       C  0.12641846  0.00300362  0.19367399    -0.10700
C1658       C  0.14593727  0.99587821  0.18611896     0.20800
C1659       C  0.12764763  0.99264822  0.17777642    -0.12700
C1660       C  0.08991193  0.99638243  0.17701823    -0.11000
C1661       C  0.18493915  0.99254112  0.18684041     0.01800
C1662       C  0.21797838  0.99105941  0.18729706    -0.31000
C1663       C  0.03117363  0.00617568  0.18402543     0.03200
C1664       C  0.99799829  0.00688529  0.18408754    -0.32700
H1665       H  0.07380057  0.01204287  0.19883484     0.14200
H1666       H  0.14033179  0.00565797  0.20013973     0.14000
H1667       H  0.14253354  0.98724619  0.17187506     0.13900
H1668       H  0.07593518  0.99362794  0.17057114     0.12900
C1669       C  0.41643505  0.89223228  0.18692079     0.19300
C1670       C  0.40643648  0.87815776  0.18062486    -0.09900
C1671       C  0.42449010  0.86070269  0.18071607    -0.10700
C1672       C  0.45270451  0.85723141  0.18708376     0.20800
C1673       C  0.46277115  0.87132616  0.19336549    -0.12700
C1674       C  0.44471478  0.88878543  0.19327379    -0.11000
C1675       C  0.47051060  0.83903978  0.18727515     0.01800
C1676       C  0.48283020  0.82321159  0.18723360    -0.31000
C1677       C  0.39843484  0.91036562  0.18675323     0.03200
C1678       C  0.38591950  0.92614634  0.18672548    -0.32700
H1679       H  0.38475973  0.88067695  0.17565380     0.14200
H1680       H  0.41638316  0.84989506  0.17584107     0.14000
H1681       H  0.48444603  0.86880636  0.19833662     0.13900
H1682       H  0.45281429  0.89959696  0.19814773     0.12900
C1683       C  0.30095698  0.99715668  0.11506419     0.19300
C1684       C  0.27629841  0.00215910  0.12207082    -0.09900
C1685       C  0.28753009  0.00158150  0.13127623    -0.10700
C1686       C  0.32348482  0.99600904  0.13353683     0.20800
C1687       C  0.34820495  0.99108586  0.12652908    -0.12700
C1688       C  0.33697101  0.99166463  0.11732115    -0.11000
C1689       C  0.33474747  0.99533989  0.14304567     0.01800
C1690       C  0.34233697  0.99508441  0.15113056    -0.31000
C1691       C  0.28939123  0.99748454  0.10557147     0.03200
C1692       C  0.28120583  0.99743149  0.09752017    -0.32700
H1693       H  0.24840720  0.00643846  0.12042360     0.14200
H1694       H  0.26816815  0.00543494  0.13663070     0.14000
H1695       H  0.37607077  0.98676863  0.12817987     0.13900
H1696       H  0.35630568  0.98777415  0.11196711     0.12900
C1697       C  0.80299979  0.10673226  0.06235045     0.19300
C1698       C  0.83996156  0.11139637  0.06066880    -0.09900
C1699       C  0.85116462  0.13031047  0.06068180    -0.10700
C1700       C  0.82544020  0.14464270  0.06238604     0.20800
C1701       C  0.78849600  0.13996920  0.06405020    -0.12700
C1702       C  0.77730321  0.12107281  0.06403708    -0.11000
C1703       C  0.83660621  0.16416098  0.06239660     0.01800
C1704       C  0.84364129  0.18080665  0.06240457    -0.31000
C1705       C  0.79161417  0.08724201  0.06243621     0.03200
C1706       C  0.78353402  0.07071991  0.06258995    -0.32700
H1707       H  0.86009348  0.10042088  0.05936618     0.14200
H1708       H  0.87978632  0.13374637  0.05937408     0.14000
H1709       H  0.76835562  0.15093578  0.06536373     0.13900
H1710       H  0.74868410  0.11764990  0.06535567     0.12900
C1711       C  0.30104642  0.10571803  0.06228675     0.19300
C1712       C  0.33150157  0.11117836  0.05697510    -0.09900
C1713       C  0.34245109  0.13012873  0.05670087    -0.10700
C1714       C  0.32302113  0.14374621  0.06174183     0.20800
C1715       C  0.29255526  0.13828380  0.06705052    -0.12700
C1716       C  0.28160651  0.11933443  0.06732468    -0.11000
C1717       C  0.33390901  0.16333845  0.06141135     0.01800
C1718       C  0.34120145  0.17998015  0.06128061    -0.31000
C1719       C  0.29012866  0.08613586  0.06261514     0.03200
C1720       C  0.28259538  0.06952686  0.06275346    -0.32700
H1721       H  0.34679037  0.10078690  0.05305646     0.14200
H1722       H  0.36599523  0.13415435  0.05255857     0.14000
H1723       H  0.27725491  0.14867436  0.07096684     0.13900
H1724       H  0.25805341  0.11530895  0.07146430     0.12900
C1725       C  0.64665148  0.25622211  0.06191189     0.19300
C1726       C  0.62733054  0.24881728  0.05438872    -0.09900
C1727       C  0.58944797  0.24550451  0.05505952    -0.10700
C1728       C  0.57079967  0.24951880  0.06326598     0.20800
C1729       C  0.59009652  0.25696034  0.07078351    -0.12700
C1730       C  0.62798493  0.26027289  0.07011285    -0.11000
C1731       C  0.53166878  0.24667241  0.06384644     0.01800
C1732       C  0.49857717  0.24550790  0.06404671    -0.31000
C1733       C  0.68584159  0.25891214  0.06134383     0.03200
C1734       C  0.71896056  0.25987113  0.06106447    -0.32700
H1735       H  0.64156165  0.24553713  0.04803405     0.14200
H1736       H  0.57470723  0.23986070  0.04918868     0.14000
H1737       H  0.57586246  0.26022493  0.07713972     0.13900
H1738       H  0.64273037  0.26590163  0.07598594     0.12900
C1739       C  0.07159526  0.25000637  0.06249663     0.19300
C1740       C  0.09599177  0.23485310  0.06143166    -0.09900
C1741       C  0.13371580  0.23826163  0.06035928    -0.10700
C1742       C  0.14716003  0.25682341  0.06032205     0.20800
C1743       C  0.12274272  0.27197095  0.06135321    -0.12700
C1744       C  0.08502916  0.26856341  0.06242466    -0.11000
C1745       C  0.18614555  0.26013076  0.05955363     0.01800
C1746       C  0.21928464  0.26114661  0.05939827    -0.31000
C1747       C  0.03266297  0.24672336  0.06343364     0.03200
C1748       C  0.99955402  0.24565912  0.06378582    -0.32700
H1749       H  0.08588570  0.22045901  0.06143188     0.14200
H1750       H  0.15242046  0.22643946  0.05960623     0.14000
H1751       H  0.13285080  0.28636399  0.06137407     0.13900
H1752       H  0.06633911  0.28038567  0.06319783     0.12900
C1753       C  0.81847921  0.10591383  0.18682702     0.19300
C1754       C  0.79211309  0.11210136  0.18046254    -0.09900
C1755       C  0.78081829  0.13099123  0.18041622    -0.10700
C1756       C  0.79578096  0.14380093  0.18674672     0.20800
C1757       C  0.82204363  0.13759503  0.19313615    -0.12700
C1758       C  0.83334054  0.11870185  0.19318233    -0.11000
C1759       C  0.78493591  0.16338056  0.18655028     0.01800
C1760       C  0.77743052  0.17997655  0.18631646    -0.31000
C1761       C  0.82983495  0.08641436  0.18689075     0.03200
C1762       C  0.83780040  0.06987372  0.18691239    -0.32700
H1763       H  0.78033638  0.10233486  0.17553333     0.14200
H1764       H  0.76057665  0.13561727  0.17542869     0.14000
H1765       H  0.83388778  0.14737148  0.19805015     0.13900
H1766       H  0.85365050  0.11408135  0.19815395     0.12900
C1767       C  0.82351140  0.25315387  0.11467762     0.19300
C1768       C  0.79905186  0.26720105  0.11765480    -0.09900
C1769       C  0.78603440  0.26716779  0.12671078    -0.10700
C1770       C  0.79736370  0.25305757  0.13282933     0.20800
C1771       C  0.82200284  0.23907308  0.12987000    -0.12700
C1772       C  0.83501933  0.23910480  0.12081186    -0.11000
C1773       C  0.78428811  0.25304062  0.14217954     0.01800
C1774       C  0.77542367  0.25275388  0.15017155    -0.31000
C1775       C  0.83579979  0.25291124  0.10526090     0.03200
C1776       C  0.84387602  0.25294582  0.09721479    -0.32700
H1777       H  0.78989596  0.27810566  0.11296237     0.14200
H1778       H  0.76713142  0.27809455  0.12893124     0.14000
H1779       H  0.83107706  0.22814011  0.13455690     0.13900
H1780       H  0.85384060  0.22814768  0.11858339     0.12900
C1781       C  0.29986842  0.14320480  0.18554984     0.19300
C1782       C  0.32764456  0.13706695  0.17954613    -0.09900
C1783       C  0.33878449  0.11815341  0.17956551    -0.10700
C1784       C  0.32224775  0.10528097  0.18560046     0.20800
C1785       C  0.29457654  0.11142722  0.19162973    -0.12700
C1786       C  0.28343553  0.13033934  0.19161012    -0.11000
C1787       C  0.33309028  0.08571765  0.18551944     0.01800
C1788       C  0.34046220  0.06911304  0.18554827    -0.31000
C1789       C  0.28851168  0.16270972  0.18551648     0.03200
C1790       C  0.28030897  0.17922464  0.18543385    -0.32700
H1791       H  0.34062199  0.14688842  0.17484497     0.14200
H1792       H  0.36015417  0.11356465  0.17486330     0.14000
H1793       H  0.28154620  0.10159329  0.19631666     0.13900
H1794       H  0.26200789  0.13491312  0.19629905     0.12900
C1795       C  0.54572683  0.24879983  0.18528536     0.19300
C1796       C  0.53051348  0.25214707  0.19399881    -0.09900
C1797       C  0.49278430  0.25575914  0.19491576    -0.10700
C1798       C  0.47016828  0.25611040  0.18711298     0.20800
C1799       C  0.48538211  0.25272373  0.17840648    -0.12700
C1800       C  0.52308278  0.24911103  0.17749036    -0.11000
C1801       C  0.43113204  0.25915860  0.18799807     0.01800
C1802       C  0.39797874  0.26012503  0.18813034    -0.31000
C1803       C  0.58475806  0.24579797  0.18433570     0.03200
C1804       C  0.61783828  0.24463770  0.18384066    -0.32700
H1805       H  0.54783232  0.25203258  0.20006834     0.14200
H1806       H  0.48126961  0.25822351  0.20168583     0.14000
H1807       H  0.46807547  0.25282832  0.17233415     0.13900
H1808       H  0.53457406  0.24663756  0.17071823     0.12900
C1809       C  0.97061000  0.25650491  0.18689696     0.19300
C1810       C  0.98911858  0.26000594  0.17861213    -0.09900
C1811       C  0.02679443  0.25613820  0.17784540    -0.10700
C1812       C  0.04612012  0.24867489  0.18534704     0.20800
C1813       C  0.02765402  0.24522288  0.19364259    -0.12700
C1814       C  0.98996158  0.24908983  0.19440938    -0.11000
C1815       C  0.08512863  0.24528208  0.18463751     0.01800
C1816       C  0.11819463  0.24385676  0.18422118    -0.31000
C1817       C  0.93144295  0.25953609  0.18750956     0.03200
C1818       C  0.89825746  0.26048177  0.18760176    -0.32700
H1819       H  0.97438376  0.26559855  0.17273560     0.14200
H1820       H  0.04084551  0.25897861  0.17141809     0.14000
H1821       H  0.04237955  0.23956986  0.19950684     0.13900
H1822       H  0.97588031  0.24618865  0.20082554     0.12900
C1823       C  0.31829878  0.25312185  0.11448207     0.19300
C1824       C  0.32852361  0.26793185  0.12034363    -0.09900
C1825       C  0.31591813  0.26829476  0.12943885    -0.10700
C1826       C  0.29295198  0.25387237  0.13271501     0.20800
C1827       C  0.28258527  0.23910810  0.12683959    -0.12700
C1828       C  0.29518942  0.23874549  0.11774481    -0.11000
C1829       C  0.28127471  0.25384973  0.14218897     0.01800
C1830       C  0.27364233  0.25347565  0.15026470    -0.31000
C1831       C  0.33087750  0.25282806  0.10508216     0.03200
C1832       C  0.33960500  0.25253474  0.09707556    -0.32700
H1833       H  0.34625521  0.27915993  0.11789087     0.14200
H1834       H  0.32426014  0.27973682  0.13392808     0.14000
H1835       H  0.26498764  0.22783416  0.12930309     0.13900
H1836       H  0.28697981  0.22725845  0.11326706     0.12900
C1837       C  0.56989013  0.64480875  0.06334875     0.19300
C1838       C  0.54627461  0.63778052  0.05652581    -0.09900
C1839       C  0.53502341  0.61887546  0.05670728    -0.10700
C1840       C  0.54725995  0.60685861  0.06372236     0.20800
C1841       C  0.57095253  0.61386777  0.07053845    -0.12700
C1842       C  0.58220755  0.63278510  0.07035747    -0.11000
C1843       C  0.53626297  0.58726601  0.06379149     0.01800
C1844       C  0.52858475  0.57066671  0.06367142    -0.31000
C1845       C  0.58069078  0.66443033  0.06325427     0.03200
C1846       C  0.58813062  0.68105991  0.06318647    -0.32700
H1847       H  0.53648060  0.64692587  0.05108188     0.14200
H1848       H  0.51684935  0.61362820  0.05137560     0.14000
H1849       H  0.58075423  0.60471287  0.07597774     0.13900
H1850       H  0.60039514  0.63803757  0.07568507     0.12900
C1851       C  0.45347731  0.39287827  0.06206857     0.19300
C1852       C  0.42281690  0.38966473  0.05640558    -0.09900
C1853       C  0.40525149  0.37206032  0.05641797    -0.10700
C1854       C  0.41819124  0.35755754  0.06211132     0.20800
C1855       C  0.44886049  0.36076940  0.06777319    -0.12700
C1856       C  0.46642704  0.37837624  0.06776104    -0.11000
C1857       C  0.40058805  0.33927919  0.06204811     0.01800
C1858       C  0.38805675  0.32347592  0.06209610    -0.31000
C1859       C  0.47092917  0.41118960  0.06216066     0.03200
C1860       C  0.48303370  0.42707651  0.06214732    -0.32700
H1861       H  0.41244422  0.40078240  0.05199707     0.14200
H1862       H  0.38165909  0.36975862  0.05199199     0.14000
H1863       H  0.45920802  0.34965780  0.07218868     0.13900
H1864       H  0.48999514  0.38068714  0.07219399     0.12900
C1865       C  0.07179140  0.64440456  0.06212516     0.19300
C1866       C  0.05351306  0.63676996  0.06975548    -0.09900
C1867       C  0.04169785  0.61797730  0.06962663    -0.10700
C1868       C  0.04802666  0.60673042  0.06185736     0.20800
C1869       C  0.06642557  0.61433463  0.05423515    -0.12700
C1870       C  0.07824504  0.63314074  0.05436353    -0.11000
C1871       C  0.03652906  0.58727676  0.06180231     0.01800
C1872       C  0.02869415  0.57073470  0.06189037    -0.31000
C1873       C  0.08302669  0.66390466  0.06221363     0.03200
C1874       C  0.09061072  0.68047759  0.06244409    -0.32700
H1875       H  0.04830259  0.64535837  0.07578540     0.14200
H1876       H  0.02768502  0.61222083  0.07557775     0.14000
H1877       H  0.07164738  0.60573320  0.04821042     0.13900
H1878       H  0.09227726  0.63890070  0.04841657     0.12900
C1879       C  0.72273879  0.49482088  0.06221206     0.19300
C1880       C  0.74216568  0.50181438  0.05461708    -0.09900
C1881       C  0.77996626  0.50536831  0.05530327    -0.10700
C1882       C  0.79844950  0.50200101  0.06359689     0.20800
C1883       C  0.77907847  0.49490783  0.07117864    -0.12700
C1884       C  0.74126739  0.49135462  0.07049276    -0.11000
C1885       C  0.83752787  0.50506243  0.06420317     0.01800
C1886       C  0.87062329  0.50621195  0.06445440    -0.31000
C1887       C  0.68353505  0.49210068  0.06163646     0.03200
C1888       C  0.65039781  0.49122857  0.06132274    -0.32700
H1889       H  0.72805602  0.50463305  0.04819751     0.14200
H1890       H  0.79476555  0.51070954  0.04937834     0.14000
H1891       H  0.79319284  0.49211380  0.07760042     0.13900
H1892       H  0.72645978  0.48603777  0.07642119     0.12900
C1893       C  0.29799030  0.50128985  0.06384073     0.19300
C1894       C  0.27900922  0.50873059  0.05628022    -0.09900
C1895       C  0.24133621  0.50522322  0.05521543    -0.10700
C1896       C  0.22254372  0.49418811  0.06168551     0.20800
C1897       C  0.24153592  0.48669247  0.06923191    -0.12700
C1898       C  0.27922194  0.49019908  0.07029651    -0.11000
C1899       C  0.18343182  0.49147464  0.06086795     0.01800
C1900       C  0.15028842  0.49073016  0.06066102    -0.31000
C1901       C  0.33702121  0.50429070  0.06471723     0.03200
C1902       C  0.37013258  0.50547114  0.06490420    -0.32700
H1903       H  0.29333898  0.51719535  0.05120946     0.14200
H1904       H  0.22683335  0.51120412  0.04939349     0.14000
H1905       H  0.22717843  0.47826067  0.07431106     0.13900
H1906       H  0.29371322  0.48424979  0.07612749     0.12900
C1907       C  0.95233009  0.39354077  0.06281979     0.19300
C1908       C  0.97257033  0.37704225  0.06117534    -0.09900
C1909       C  0.95490608  0.35946481  0.06123349    -0.10700
C1910       C  0.91690867  0.35827802  0.06293364     0.20800
C1911       C  0.89669104  0.37477445  0.06458672    -0.12700
C1912       C  0.91435042  0.39234665  0.06452901    -0.11000
C1913       C  0.89891488  0.34011402  0.06294018     0.01800
C1914       C  0.88640370  0.32431887  0.06277944    -0.31000
C1915       C  0.97019552  0.41173616  0.06274538     0.03200
C1916       C  0.98254498  0.42756726  0.06279679    -0.32700
H1917       H  0.00191991  0.37776385  0.05984317     0.14200
H1918       H  0.97084692  0.34680722  0.05994376     0.14000
H1919       H  0.86733327  0.37405880  0.06590742     0.13900
H1920       H  0.89839587  0.40500399  0.06580774     0.12900
C1921       C  0.54569399  0.64387117  0.18666219     0.19300
C1922       C  0.51937441  0.62944012  0.18615036    -0.09900
C1923       C  0.53061663  0.61055870  0.18585761    -0.10700
C1924       C  0.56822179  0.60602275  0.18606930     0.20800
C1925       C  0.59453285  0.62045712  0.18658806    -0.12700
C1926       C  0.58329210  0.63933559  0.18688089    -0.11000
C1927       C  0.57962007  0.58655581  0.18584042     0.01800
C1928       C  0.58742344  0.57000626  0.18578475    -0.31000
C1929       C  0.53434946  0.66333988  0.18687809     0.03200
C1930       C  0.52678617  0.67991319  0.18694394    -0.32700
H1931       H  0.49024334  0.63277807  0.18596819     0.14200
H1932       H  0.51002400  0.59950736  0.18547199     0.14000
H1933       H  0.62366519  0.61712339  0.18677083     0.13900
H1934       H  0.60388547  0.65038710  0.18726712     0.12900
C1935       C  0.69829178  0.35715855  0.18557235     0.19300
C1936       C  0.71935707  0.37373292  0.18542345    -0.09900
C1937       C  0.70196607  0.39137493  0.18558045    -0.10700
C1938       C  0.66338817  0.39257470  0.18588180     0.20800
C1939       C  0.64231193  0.37600024  0.18603778    -0.12700
C1940       C  0.65970816  0.35835302  0.18588081    -0.11000
C1941       C  0.64572793  0.41083677  0.18604183     0.01800
C1942       C  0.63345156  0.42668814  0.18620924    -0.31000
C1943       C  0.71603595  0.33891897  0.18539365     0.03200
C1944       C  0.72872407  0.32315348  0.18521909    -0.32700
H1945       H  0.74917183  0.37302234  0.18518376     0.14200
H1946       H  0.71859062  0.40407895  0.18546394     0.14000
H1947       H  0.61249759  0.37671478  0.18627713     0.13900
H1948       H  0.64309087  0.34564660  0.18599699     0.12900
C1949       C  0.54589498  0.49717716  0.11518752     0.19300
C1950       C  0.52056422  0.50132680  0.12217722    -0.09900
C1951       C  0.53189477  0.50142550  0.13137991    -0.10700
C1952       C  0.56861592  0.49738481  0.13364845     0.20800
C1953       C  0.59397242  0.49329501  0.12665684    -0.12700
C1954       C  0.58264283  0.49319660  0.11745475    -0.11000
C1955       C  0.58003117  0.49725676  0.14314828     0.01800
C1956       C  0.58804694  0.49709448  0.15120606    -0.31000
C1957       C  0.53439056  0.49706140  0.10569315     0.03200
C1958       C  0.52642535  0.49697551  0.09763112    -0.32700
H1959       H  0.49210973  0.50445593  0.12051715     0.14200
H1960       H  0.51202250  0.50460191  0.13672398     0.14000
H1961       H  0.62241678  0.49014241  0.12831759     0.13900
H1962       H  0.60250689  0.48999668  0.11211205     0.12900
C1963       C  0.04813430  0.64378381  0.18596802     0.19300
C1964       C  0.08145555  0.63834459  0.18186399    -0.09900
C1965       C  0.09185317  0.61932098  0.18174242    -0.10700
C1966       C  0.06897318  0.60565154  0.18572976     0.20800
C1967       C  0.03569718  0.61110257  0.18984697    -0.12700
C1968       C  0.02530462  0.63011512  0.18996799    -0.11000
C1969       C  0.07929869  0.58602023  0.18555548     0.01800
C1970       C  0.08621776  0.56936440  0.18554882    -0.31000
C1971       C  0.03762535  0.66338941  0.18615718     0.03200
C1972       C  0.02994974  0.67995298  0.18636714    -0.32700
H1973       H  0.09937390  0.64879931  0.17876802     0.14200
H1974       H  0.11763263  0.61527868  0.17853912     0.14000
H1975       H  0.01778147  0.60065526  0.19295048     0.13900
H1976       H  0.99953424  0.63415103  0.19317819     0.12900
C1977       C  0.89260495  0.49291785  0.18644449     0.19300
C1978       C  0.87491813  0.48944458  0.17804677    -0.09900
C1979       C  0.83742447  0.49351190  0.17704035    -0.10700
C1980       C  0.81755059  0.50114481  0.18441826     0.20800
C1981       C  0.83523524  0.50458801  0.19281814    -0.12700
C1982       C  0.87270777  0.50051893  0.19382470    -0.11000
C1983       C  0.77861668  0.50445129  0.18357455     0.01800
C1984       C  0.74551040  0.50564785  0.18346693    -0.31000
C1985       C  0.93155763  0.48971075  0.18732099     0.03200
C1986       C  0.96464441  0.48871165  0.18776248    -0.32700
H1987       H  0.89014101  0.48370179  0.17227644     0.14200
H1988       H  0.82392799  0.49064147  0.17054179     0.14000
H1989       H  0.82002584  0.51033263  0.19859087     0.13900
H1990       H  0.88619105  0.50339069  0.20032541     0.12900
C1991       C  0.39318651  0.49602071  0.18652198     0.19300
C1992       C  0.37947968  0.51432439  0.18519125    -0.09900
C1993       C  0.34146229  0.51739491  0.18460236    -0.10700
C1994       C  0.31703434  0.50215976  0.18533200     0.20800
C1995       C  0.33076376  0.48386848  0.18665565    -0.12700
C1996       C  0.36874783  0.48080099  0.18724487    -0.11000
C1997       C  0.27785591  0.50512544  0.18486250     0.01800
C1998       C  0.24467964  0.50594041  0.18479909    -0.31000
C1999       C  0.43230593  0.49294446  0.18711938     0.03200
C2000       C  0.46537838  0.49154262  0.18747443    -0.32700
H2001       H  0.39816916  0.52619919  0.18462047     0.14200
H2002       H  0.33115019  0.53159674  0.18360114     0.14000
H2003       H  0.31208909  0.47199213  0.18725147     0.13900
H2004       H  0.37903370  0.46660148  0.18827107     0.12900
C2005       C  0.19921070  0.35667145  0.18663558     0.19300
C2006       C  0.20857431  0.37010792  0.19332206    -0.09900
C2007       C  0.19125176  0.38777874  0.19338890    -0.10700
C2008       C  0.16438764  0.39212585  0.18678780     0.20800
C2009       C  0.15503196  0.37869694  0.18010119    -0.12700
C2010       C  0.17235105  0.36103015  0.18003406    -0.11000
C2011       C  0.14714373  0.41049389  0.18677975     0.01800
C2012       C  0.13481020  0.42633474  0.18686046    -0.31000
C2013       C  0.21647811  0.33829300  0.18661789     0.03200
C2014       C  0.22876809  0.32243495  0.18642478    -0.32700
H2015       H  0.22918596  0.36692265  0.19847978     0.14200
H2016       H  0.19884676  0.39805924  0.19857573     0.14000
H2017       H  0.13443476  0.38188777  0.17494007     0.13900
H2018       H  0.16476315  0.35075938  0.17484243     0.12900
C2019       C  0.04533673  0.49667032  0.11564555     0.19300
C2020       C  0.02947935  0.50901081  0.12205762    -0.09900
C2021       C  0.04103050  0.50870543  0.13123926    -0.10700
C2022       C  0.06854874  0.49608645  0.13405940     0.20800
C2023       C  0.08425374  0.48366680  0.12765972    -0.12700
C2024       C  0.07269964  0.48397143  0.11847695    -0.11000
C2025       C  0.08030363  0.49582146  0.14352874     0.01800
C2026       C  0.08848297  0.49575981  0.15157428    -0.31000
C2027       C  0.03431676  0.49733059  0.10612562     0.03200
C2028       C  0.02685687  0.49793026  0.09804164    -0.32700
H2029       H  0.00836960  0.51891845  0.11995291     0.14200
H2030       H  0.02859382  0.51833313  0.13613012     0.14000
H2031       H  0.10545481  0.47380557  0.12975886     0.13900
H2032       H  0.08522469  0.47438928  0.11357908     0.12900
C2033       C  0.84904238  0.00703265  0.81209136     0.19300
C2034       C  0.87057870  0.00548146  0.80413368    -0.09900
C2035       C  0.90827903  0.00167419  0.80484538    -0.10700
C2036       C  0.92453281  0.99933252  0.81351256     0.20800
C2037       C  0.90298285  0.00083644  0.82146717    -0.12700
C2038       C  0.86529048  0.00464374  0.82075569    -0.11000
C2039       C  0.96360314  0.99635182  0.81422287     0.01800
C2040       C  0.99673623  0.99545717  0.81440438    -0.31000
C2041       C  0.81000140  0.01018205  0.81139939     0.03200
C2042       C  0.77686476  0.01118102  0.81126310    -0.32700
H2043       H  0.85823398  0.00715978  0.79740030     0.14200
H2044       H  0.92477895  0.00065952  0.79865240     0.14000
H2045       H  0.91533195  0.99917158  0.82820105     0.13900
H2046       H  0.84880432  0.00567168  0.82695011     0.12900
C2047       C  0.42451217  0.00059273  0.81411620     0.19300
C2048       C  0.41070828  0.01906139  0.81379037    -0.09900
C2049       C  0.37288488  0.02218543  0.81276329    -0.10700
C2050       C  0.34872827  0.00684313  0.81204272     0.20800
C2051       C  0.36252435  0.98837115  0.81235390    -0.12700
C2052       C  0.40035295  0.98524644  0.81338120    -0.11000
C2053       C  0.30971088  0.00991039  0.81119329     0.01800
C2054       C  0.27662582  0.01104365  0.81079935    -0.31000
C2055       C  0.46353888  0.99754054  0.81501113     0.03200
C2056       C  0.49662695  0.99632826  0.81542047    -0.32700
H2057       H  0.42919255  0.03103019  0.81431989     0.14200
H2058       H  0.36249715  0.03651603  0.81255545     0.14000
H2059       H  0.34403040  0.97640464  0.81182678     0.13900
H2060       H  0.41073629  0.97091527  0.81359170     0.12900
C2061       C  0.74460500  0.99916470  0.99090671     0.19300
C2062       C  0.72088391  0.98761660  0.99602270    -0.09900
C2063       C  0.72362141  0.98711797  0.00561679    -0.10700
C2064       C  0.75010488  0.99816155  0.01012778     0.20800
C2065       C  0.77388247  0.00965694  0.00500646    -0.12700
C2066       C  0.77114612  0.01015559  0.99541907    -0.11000
C2067       C  0.75274023  0.99786006  0.02000124     0.01800
C2068       C  0.75499738  0.99788880  0.02827258    -0.31000
C2069       C  0.74174849  0.99977415  0.98104107     0.03200
C2070       C  0.73980863  0.00037833  0.97277056    -0.32700
H2071       H  0.70027946  0.97904943  0.99260122     0.14200
H2072       H  0.70507979  0.97818307  0.00951036     0.14000
H2073       H  0.79444326  0.01825730  0.00842472     0.13900
H2074       H  0.78964540  0.01912341  0.99153058     0.12900
C2075       C  0.67444656  0.00460885  0.86637542     0.19300
C2076       C  0.67599031  0.98761667  0.87129493    -0.09900
C2077       C  0.68834903  0.98747939  0.88041601    -0.10700
C2078       C  0.69932775  0.00432649  0.88467457     0.20800
C2079       C  0.69788482  0.02131412  0.87975083    -0.12700
C2080       C  0.68552503  0.02145146  0.87062737    -0.11000
C2081       C  0.71092999  0.00424860  0.89416535     0.01800
C2082       C  0.71878958  0.00419927  0.90223558    -0.31000
C2083       C  0.66248118  0.00467070  0.85690648     0.03200
C2084       C  0.65429757  0.00445329  0.84885225    -0.32700
H2085       H  0.66768504  0.97448544  0.86807954     0.14200
H2086       H  0.68920501  0.97426549  0.88415449     0.14000
H2087       H  0.70616550  0.03444417  0.88297160     0.13900
H2088       H  0.68464297  0.03466665  0.86689130     0.12900
C2089       C  0.25274120  0.99939584  0.00867271     0.19300
C2090       C  0.26470003  0.01521181  0.00371167    -0.09900
C2091       C  0.26205035  0.01545879  0.99410563    -0.10700
C2092       C  0.24742030  0.99989583  0.98939215     0.20800
C2093       C  0.23568768  0.98402380  0.99434778    -0.12700
C2094       C  0.23833828  0.98377670  0.00395654    -0.11000
C2095       C  0.24435118  0.00027920  0.97949512     0.01800
C2096       C  0.24207666  0.00078138  0.97120883    -0.31000
C2097       C  0.25490064  0.99926398  0.01858595     0.03200
C2098       C  0.25642685  0.99912372  0.02688609    -0.32700
H2099       H  0.27591304  0.02736998  0.00726774     0.14200
H2100       H  0.27127326  0.02780075  0.99035961     0.14000
H2101       H  0.22438315  0.97188767  0.99079190     0.13900
H2102       H  0.22902475  0.97145702  0.00770604     0.12900
C2103       C  0.94708259  0.00014584  0.93627343     0.19300
C2104       C  0.96670627  0.99436579  0.94407521    -0.09900
C2105       C  0.00445666  0.99809280  0.94476694    -0.10700
C2106       C  0.02269332  0.00769717  0.93768150     0.20800
C2107       C  0.00303731  0.01354735  0.92989731    -0.12700
C2108       C  0.96528674  0.00982060  0.92920572    -0.11000
C2109       C  0.06188048  0.01060102  0.93816778     0.01800
C2110       C  0.09505257  0.01140854  0.93820245    -0.31000
C2111       C  0.90802719  0.99686453  0.93569356     0.03200
C2112       C  0.87491628  0.99557725  0.93555046    -0.32700
H2113       H  0.95283667  0.98700461  0.94961275     0.14200
H2114       H  0.01945522  0.99338278  0.95078469     0.14000
H2115       H  0.01692757  0.02085936  0.92434755     0.13900
H2116       H  0.95030859  0.01448184  0.92317581     0.12900
C2117       C  0.52243641  0.00660894  0.93749490     0.19300
C2118       C  0.50378671  0.99521784  0.94384720    -0.09900
C2119       C  0.46606559  0.99180756  0.94280719    -0.10700
C2120       C  0.44690438  0.99971372  0.93539111     0.20800
C2121       C  0.46556029  0.01108204  0.92903063    -0.12700
C2122       C  0.50328497  0.01449198  0.93007051    -0.11000
C2123       C  0.40784515  0.99684842  0.93453398     0.01800
C2124       C  0.37476543  0.99571429  0.93415379    -0.31000
C2125       C  0.56147729  0.00953013  0.93837971     0.03200
C2126       C  0.59455928  0.01061295  0.93880722    -0.32700
H2127       H  0.51841021  0.98894616  0.94957644     0.14200
H2128       H  0.45183333  0.98309110  0.94779318     0.14000
H2129       H  0.45093151  0.01735538  0.92330261     0.13900
H2130       H  0.51751665  0.02321018  0.92508539     0.12900
C2131       C  0.19840628  0.00478375  0.88311212     0.19300
C2132       C  0.22264525  0.00965948  0.87599979    -0.09900
C2133       C  0.21036242  0.00971661  0.86687542    -0.10700
C2134       C  0.17378639  0.00491104  0.86481188     0.20800
C2135       C  0.14954532  0.00004287  0.87192588    -0.12700
C2136       C  0.16182676  0.99998628  0.88104939    -0.11000
C2137       C  0.16141744  0.00486620  0.85539012     0.01800
C2138       C  0.15303482  0.00487763  0.84735720    -0.31000
C2139       C  0.21079948  0.00470856  0.89252985     0.03200
C2140       C  0.21892725  0.00440362  0.90057601    -0.32700
H2141       H  0.25096637  0.01339887  0.87750348     0.14200
H2142       H  0.22937673  0.01348356  0.86143105     0.14000
H2143       H  0.12123526  0.99628015  0.87042247     0.13900
H2144       H  0.14282313  0.99619679  0.88649276     0.12900
C2145       C  0.04228886  0.14367549  0.81244489     0.19300
C2146       C  0.07753701  0.14183664  0.81630439    -0.09900
C2147       C  0.09560806  0.12437792  0.81615963    -0.10700
C2148       C  0.07854837  0.10865988  0.81214288     0.20800
C2149       C  0.04329930  0.11050334  0.80828733    -0.12700
C2150       C  0.02523326  0.12795677  0.80843234    -0.11000
C2151       C  0.09664662  0.09053280  0.81210283     0.01800
C2152       C  0.10906911  0.07472291  0.81201814    -0.31000
C2153       C  0.02412674  0.16178264  0.81246770     0.03200
C2154       C  0.01132572  0.17751136  0.81250132    -0.32700
H2155       H  0.09105630  0.15390140  0.81940705     0.14200
H2156       H  0.12278610  0.12313449  0.81918481     0.14000
H2157       H  0.02977195  0.09844153  0.80518421     0.13900
H2158       H  0.99805431  0.12919695  0.80540703     0.12900
C2159       C  0.69489283  0.25251568  0.81254555     0.19300
C2160       C  0.71359290  0.25844770  0.80462393    -0.09900
C2161       C  0.75115944  0.25454909  0.80357750    -0.10700
C2162       C  0.77014862  0.24462650  0.81042999     0.20800
C2163       C  0.75143204  0.23867922  0.81834419    -0.12700
C2164       C  0.71387893  0.24257871  0.81939078    -0.11000
C2165       C  0.80921606  0.24152480  0.80961273     0.01800
C2166       C  0.84237750  0.24050253  0.80946997    -0.31000
C2167       C  0.65585665  0.25566935  0.81340568     0.03200
C2168       C  0.62270506  0.25668086  0.81365943    -0.32700
H2169       H  0.69911219  0.26600086  0.79925078     0.14200
H2170       H  0.76541911  0.25935152  0.79746360     0.14000
H2171       H  0.76590822  0.23113294  0.82372041     0.13900
H2172       H  0.69963068  0.23778359  0.82550776     0.12900
C2173       C  0.27025018  0.24449913  0.81182019     0.19300
C2174       C  0.25060056  0.23859980  0.81959930    -0.09900
C2175       C  0.21287540  0.24237996  0.82031365    -0.10700
C2176       C  0.19470298  0.25213535  0.81326896     0.20800
C2177       C  0.21437700  0.25808501  0.80550623    -0.12700
C2178       C  0.25208616  0.25430433  0.80479156    -0.11000
C2179       C  0.15557531  0.25516528  0.81378763     0.01800
C2180       C  0.12244418  0.25622024  0.81393870    -0.31000
C2181       C  0.30929971  0.24123196  0.81120350     0.03200
C2182       C  0.34239525  0.24004500  0.81081368    -0.32700
H2183       H  0.26443068  0.23112559  0.82510360     0.14200
H2184       H  0.19785267  0.23760723  0.82631821     0.14000
H2185       H  0.20053786  0.26552768  0.79999264     0.13900
H2186       H  0.26708012  0.25904620  0.79877682     0.12900
C2187       C  0.57728851  0.10769391  0.81205636     0.19300
C2188       C  0.53900642  0.10878634  0.81080368    -0.09900
C2189       C  0.52132748  0.12636106  0.81073869    -0.10700
C2190       C  0.54183052  0.14295213  0.81193320     0.20800
C2191       C  0.58010026  0.14184054  0.81319057    -0.12700
C2192       C  0.59776776  0.12427650  0.81325514    -0.11000
C2193       C  0.52398011  0.16116394  0.81178901     0.01800
C2194       C  0.51164192  0.17700298  0.81162254    -0.31000
C2195       C  0.59527068  0.08953676  0.81225086     0.03200
C2196       C  0.60810981  0.07382702  0.81256965    -0.32700
H2197       H  0.52284275  0.09605913  0.80989365     0.14200
H2198       H  0.49175596  0.12700808  0.80975330     0.14000
H2199       H  0.59627790  0.15455776  0.81411403     0.13900
H2200       H  0.62733384  0.12363089  0.81425325     0.12900
C2201       C  0.86871463  0.25113092  0.00864325     0.19300
C2202       C  0.86927936  0.26799762  0.00362213    -0.09900
C2203       C  0.87300497  0.26754426  0.99405173    -0.10700
C2204       C  0.87620989  0.25022310  0.98946274     0.20800
C2205       C  0.87556687  0.23335055  0.99448131    -0.12700
C2206       C  0.87184098  0.23380398  0.00405324    -0.11000
C2207       C  0.87991259  0.24976959  0.97961232     0.01800
C2208       C  0.88245967  0.24942269  0.97134846    -0.31000
C2209       C  0.86545164  0.25161668  0.01850275     0.03200
C2210       C  0.86346579  0.25198611  0.02677576    -0.32700
H2211       H  0.86693649  0.28147235  0.00710350     0.14200
H2212       H  0.87341504  0.28067260  0.99023667     0.14000
H2213       H  0.87796961  0.21987780  0.99100045     0.13900
H2214       H  0.87149038  0.22067779  0.00787063     0.12900
C2215       C  0.83250690  0.14233407  0.93588462     0.19300
C2216       C  0.84156739  0.12834467  0.92944983    -0.09900
C2217       C  0.82315548  0.11096491  0.92956742    -0.10700
C2218       C  0.79551851  0.10751353  0.93610082     0.20800
C2219       C  0.78647701  0.12150265  0.94252581    -0.12700
C2220       C  0.80487247  0.13886017  0.94240992    -0.11000
C2221       C  0.77736120  0.08942332  0.93640449     0.01800
C2222       C  0.76435701  0.07376509  0.93680790    -0.31000
C2223       C  0.85058784  0.16046715  0.93568713     0.03200
C2224       C  0.86276639  0.17633269  0.93573189    -0.32700
H2225       H  0.86275717  0.13087800  0.92434661     0.14200
H2226       H  0.83052574  0.10021590  0.92459276     0.14000
H2227       H  0.76531365  0.11897383  0.94763732     0.13900
H2228       H  0.79750301  0.14958780  0.94739559     0.12900
C2229       C  0.94645650  0.24742494  0.86485621     0.19300
C2230       C  0.96452252  0.25891987  0.87127781    -0.09900
C2231       C  0.95327410  0.25895815  0.88048494    -0.10700
C2232       C  0.92385100  0.24752934  0.88332473     0.20800
C2233       C  0.90595720  0.23592101  0.87691841    -0.12700
C2234       C  0.91720973  0.23588249  0.86770804    -0.11000
C2235       C  0.91239588  0.24762271  0.89282108     0.01800
C2236       C  0.90447995  0.24768403  0.90088518    -0.31000
C2237       C  0.95723098  0.24781398  0.85531205     0.03200
C2238       C  0.96472662  0.24829477  0.84722612    -0.32700
H2239       H  0.98712429  0.26792123  0.86915969     0.14200
H2240       H  0.96742722  0.26793437  0.88537992     0.14000
H2241       H  0.88328210  0.22696489  0.87903341     0.13900
H2242       H  0.90298798  0.22695117  0.86280599     0.12900
C2243       C  0.37115370  0.25269763  0.00836168     0.19300
C2244       C  0.40527830  0.25517329  0.00399973    -0.09900
C2245       C  0.40772239  0.25453733  0.99439225    -0.10700
C2246       C  0.37606079  0.25141866  0.98907819     0.20800
C2247       C  0.34189256  0.24906725  0.99343719    -0.12700
C2248       C  0.33944826  0.24970315  0.00304553    -0.11000
C2249       C  0.37864840  0.25057101  0.97917675     0.01800
C2250       C  0.38066286  0.24992866  0.97088675    -0.31000
C2251       C  0.36876840  0.25297549  0.01827352     0.03200
C2252       C  0.36692517  0.25299902  0.02657153    -0.32700
H2253       H  0.42999656  0.25750238  0.00802351     0.14200
H2254       H  0.43428920  0.25640407  0.99111333     0.14000
H2255       H  0.31719494  0.24667437  0.98941422     0.13900
H2256       H  0.31290204  0.24777256  0.00632624     0.12900
C2257       C  0.67627453  0.25056644  0.93510714     0.19300
C2258       C  0.66269180  0.23212927  0.93603498    -0.09900
C2259       C  0.62480352  0.22897044  0.93695788    -0.10700
C2260       C  0.60032751  0.24424868  0.93698219     0.20800
C2261       C  0.61393259  0.26269175  0.93609643    -0.12700
C2262       C  0.65181589  0.26584980  0.93517261    -0.11000
C2263       C  0.56119668  0.24114043  0.93767369     0.01800
C2264       C  0.52801369  0.24018194  0.93782120    -0.31000
C2265       C  0.71534344  0.25367701  0.93425290     0.03200
C2266       C  0.74847832  0.25484659  0.93396074    -0.32700
H2267       H  0.68139225  0.22020598  0.93603448     0.14200
H2268       H  0.61461399  0.21465753  0.93761332     0.14000
H2269       H  0.59523312  0.27461536  0.93608213     0.13900
H2270       H  0.66200011  0.28016132  0.93450152     0.12900
C2271       C  0.10076384  0.24404790  0.93605253     0.19300
C2272       C  0.11519524  0.25257014  0.92814039    -0.09900
C2273       C  0.15300087  0.25603823  0.92745375    -0.10700
C2274       C  0.17645563  0.25103533  0.93469158     0.20800
C2275       C  0.16205657  0.24243356  0.94259011    -0.12700
C2276       C  0.12423564  0.23896725  0.94327777    -0.11000
C2277       C  0.21540061  0.25427581  0.93396225     0.01800
C2278       C  0.24842266  0.25568860  0.93363479    -0.31000
C2279       C  0.06171250  0.24123779  0.93684630     0.03200
C2280       C  0.02862557  0.24037688  0.93722076    -0.32700
H2281       H  0.09719672  0.25662572  0.92253465     0.14200
H2282       H  0.16391317  0.26261119  0.92130342     0.14000
H2283       H  0.18005005  0.23843198  0.94820628     0.13900
H2284       H  0.11329961  0.23244975  0.94943965     0.12900
C2285       C  0.32843922  0.14354673  0.93670678     0.19300
C2286       C  0.29722707  0.14052793  0.94221602    -0.09900
C2287       C  0.27974455  0.12287600  0.94227688    -0.10700
C2288       C  0.29330109  0.10811431  0.93681447     0.20800
C2289       C  0.32456386  0.11112275  0.93132824    -0.12700
C2290       C  0.34203560  0.12876291  0.93126759    -0.11000
C2291       C  0.27565568  0.08980852  0.93687999     0.01800
C2292       C  0.26327598  0.07395564  0.93672609    -0.31000
C2293       C  0.34577538  0.16193175  0.93645571     0.03200
C2294       C  0.35830344  0.17775037  0.93614226    -0.32700
H2295       H  0.28632082  0.15183865  0.94643060     0.14200
H2296       H  0.25568110  0.12075545  0.94656707     0.14000
H2297       H  0.33540770  0.09983381  0.92708881     0.13900
H2298       H  0.36602494  0.13089021  0.92695224     0.12900
C2299       C  0.42449786  0.24798065  0.88273465     0.19300
C2300       C  0.46171654  0.25082345  0.88053311    -0.09900
C2301       C  0.47317148  0.25070931  0.87134241    -0.10700
C2302       C  0.44745929  0.24774672  0.86430139     0.20800
C2303       C  0.41023985  0.24490307  0.86650190    -0.12700
C2304       C  0.39878380  0.24501728  0.87569335    -0.11000
C2305       C  0.45907208  0.24765608  0.85482218     0.01800
C2306       C  0.46707355  0.24751465  0.84676679    -0.31000
C2307       C  0.41290852  0.24808380  0.89221678     0.03200
C2308       C  0.40507323  0.24827934  0.90028299    -0.32700
H2309       H  0.48185847  0.25312428  0.88591933     0.14200
H2310       H  0.50200151  0.25293019  0.86973061     0.14000
H2311       H  0.39009973  0.24260481  0.86111498     0.13900
H2312       H  0.36995374  0.24279899  0.87730531     0.12900
C2313       C  0.67481260  0.89493025  0.81267202     0.19300
C2314       C  0.65967064  0.88222622  0.80631855    -0.09900
C2315       C  0.67075610  0.86329802  0.80632760    -0.10700
C2316       C  0.69707063  0.85697833  0.81267974     0.20800
C2317       C  0.71240969  0.86972393  0.81898254    -0.12700
C2318       C  0.70132971  0.88864383  0.81897316    -0.11000
C2319       C  0.70751259  0.83734121  0.81288308     0.01800
C2320       C  0.71462676  0.82069660  0.81306828    -0.31000
C2321       C  0.66346278  0.91442613  0.81271863     0.03200
C2322       C  0.65561336  0.93097444  0.81289444    -0.32700
H2323       H  0.63924729  0.88692693  0.80139378     0.14200
H2324       H  0.65864793  0.85357411  0.80142892     0.14000
H2325       H  0.73271779  0.86501564  0.82393472     0.13900
H2326       H  0.71332645  0.89834944  0.82389803     0.12900
C2327       C  0.17555496  0.89540491  0.81401992     0.19300
C2328       C  0.20096496  0.88878926  0.80750786    -0.09900
C2329       C  0.21218196  0.86988751  0.80761492    -0.10700
C2330       C  0.19809162  0.85748502  0.81424512     0.20800
C2331       C  0.17285264  0.86412877  0.82079483    -0.12700
C2332       C  0.16163115  0.88303669  0.82068748    -0.11000
C2333       C  0.20861147  0.83784883  0.81416781     0.01800
C2334       C  0.21574965  0.82120141  0.81402939    -0.31000
C2335       C  0.16415519  0.91490297  0.81388283     0.03200
C2336       C  0.15621706  0.93144313  0.81363268    -0.32700
H2337       H  0.21201417  0.89822624  0.80233511     0.14200
H2338       H  0.23162494  0.86492503  0.80250161     0.14000
H2339       H  0.16168478  0.85467106  0.82594212     0.13900
H2340       H  0.14206538  0.88798639  0.82577446     0.12900
C2341       C  0.02146726  0.74611500  0.81407095     0.19300
C2342       C  0.00238233  0.74035056  0.82196534    -0.09900
C2343       C  0.96448501  0.74367579  0.82271745    -0.10700
C2344       C  0.94562248  0.75284383  0.81559544     0.20800
C2345       C  0.96477602  0.75866832  0.80773064    -0.12700
C2346       C  0.00261214  0.75534055  0.80697794    -0.11000
C2347       C  0.90635273  0.75540297  0.81610409     0.01800
C2348       C  0.87318633  0.75625415  0.81600555    -0.31000
C2349       C  0.06056373  0.74317472  0.81333358     0.03200
C2350       C  0.09361600  0.74207189  0.81276331    -0.32700
H2351       H  0.01675739  0.73330144  0.82751594     0.14200
H2352       H  0.94987713  0.73899441  0.82880202     0.14000
H2353       H  0.95041405  0.76564763  0.80215698     0.13900
H2354       H  0.01715776  0.75995083  0.80087073     0.12900
C2355       C  0.52116269  0.74473353  0.81399753     0.19300
C2356       C  0.50658095  0.75228905  0.82213703    -0.09900
C2357       C  0.46890012  0.75626114  0.82277866    -0.10700
C2358       C  0.44572953  0.75274334  0.81526762     0.20800
C2359       C  0.46034064  0.74520530  0.80713385    -0.12700
C2360       C  0.49797676  0.74123198  0.80649408    -0.11000
C2361       C  0.40673991  0.75608422  0.81594446     0.01800
C2362       C  0.37360604  0.75715049  0.81598780    -0.31000
C2363       C  0.56012058  0.74137471  0.81322456     0.03200
C2364       C  0.59316566  0.74014130  0.81269060    -0.32700
H2365       H  0.52434685  0.75516726  0.82796125     0.14200
H2366       H  0.45785151  0.76199319  0.82911480     0.14000
H2367       H  0.44260515  0.74233959  0.80130183     0.13900
H2368       H  0.50900039  0.73551307  0.80015198     0.12900
C2369       C  0.62000156  0.75275837  0.00965429     0.19300
C2370       C  0.58796801  0.75329149  0.00427632    -0.09900
C2371       C  0.59049721  0.75291649  0.99467272    -0.10700
C2372       C  0.62507866  0.75200446  0.99039465     0.20800
C2373       C  0.65711405  0.75155379  0.99577286    -0.12700
C2374       C  0.65458498  0.75192810  0.00537544    -0.11000
C2375       C  0.62769247  0.75142145  0.98050589     0.01800
C2376       C  0.62976911  0.75089192  0.97222492    -0.31000
C2377       C  0.61738848  0.75294454  0.01954568     0.03200
C2378       C  0.61536466  0.75302001  0.02783054    -0.32700
H2379       H  0.56108065  0.75394057  0.00750386     0.14200
H2380       H  0.56553080  0.75328113  0.99059046     0.14000
H2381       H  0.68399911  0.75085796  0.99254656     0.13900
H2382       H  0.67954860  0.75151572  0.00945772     0.12900
C2383       C  0.67430761  0.85726759  0.93588662     0.19300
C2384       C  0.70273337  0.86338721  0.94169441    -0.09900
C2385       C  0.71390475  0.88228149  0.94159701    -0.10700
C2386       C  0.69675613  0.89515325  0.93567815     0.20800
C2387       C  0.66832687  0.88904734  0.92986258    -0.12700
C2388       C  0.65714751  0.87013699  0.92995949    -0.11000
C2389       C  0.70773762  0.91468345  0.93572417     0.01800
C2390       C  0.71554066  0.93122413  0.93593811    -0.31000
C2391       C  0.66319891  0.83774689  0.93596975     0.03200
C2392       C  0.65557318  0.82117560  0.93614734    -0.32700
H2393       H  0.71623807  0.85355637  0.94629456     0.14200
H2394       H  0.73580735  0.88685765  0.94614707     0.14000
H2395       H  0.65477275  0.89889977  0.92528234     0.13900
H2396       H  0.63518264  0.86556306  0.92542826     0.12900
C2397       C  0.69452542  0.75073596  0.86577398     0.19300
C2398       C  0.66376631  0.76137541  0.86846683    -0.09900
C2399       C  0.65209585  0.76120948  0.87764471    -0.10700
C2400       C  0.67110471  0.75037533  0.88415908     0.20800
C2401       C  0.70185303  0.73976381  0.88145857    -0.12700
C2402       C  0.71351050  0.73993149  0.87229316    -0.11000
C2403       C  0.65952030  0.75021823  0.89363377     0.01800
C2404       C  0.65177944  0.74981737  0.90169918    -0.31000
C2405       C  0.70616417  0.75057749  0.85630393     0.03200
C2406       C  0.71476394  0.75005719  0.84829462    -0.32700
H2407       H  0.64879278  0.76973744  0.86347681     0.14200
H2408       H  0.62832368  0.76949497  0.87965484     0.14000
H2409       H  0.71679839  0.73136105  0.88643776     0.13900
H2410       H  0.73723758  0.73160702  0.87028741     0.12900
C2411       C  0.12155098  0.75216273  0.01013017     0.19300
C2412       C  0.15001886  0.76186947  0.00564516    -0.09900
C2413       C  0.15247168  0.76150561  0.99603788    -0.10700
C2414       C  0.12647575  0.75142790  0.99086003     0.20800
C2415       C  0.09802283  0.74171503  0.99534721    -0.12700
C2416       C  0.09557055  0.74207897  0.00495269    -0.11000
C2417       C  0.12889708  0.75108294  0.98096028     0.01800
C2418       C  0.13058051  0.75076545  0.97266801    -0.31000
C2419       C  0.11903825  0.75251662  0.02002643     0.03200
C2420       C  0.11703958  0.75273468  0.02831350    -0.32700
H2421       H  0.17028151  0.76970737  0.00956994     0.14200
H2422       H  0.17458853  0.76907501  0.99265270     0.14000
H2423       H  0.07775369  0.73387828  0.99142402     0.13900
H2424       H  0.07344895  0.73451122  0.00833720     0.12900
C2425       C  0.19696626  0.89460114  0.93567332     0.19300
C2426       C  0.20302892  0.88350456  0.94349477    -0.09900
C2427       C  0.19216163  0.86456909  0.94356570    -0.10700
C2428       C  0.17511818  0.85665594  0.93582394     0.20800
C2429       C  0.16906216  0.86774177  0.92799512    -0.12700
C2430       C  0.17993382  0.88668948  0.92792431    -0.11000
C2431       C  0.16439871  0.83710650  0.93589660     0.01800
C2432       C  0.15678831  0.82055238  0.93609830    -0.31000
C2433       C  0.20755986  0.91417543  0.93566709     0.03200
C2434       C  0.21509139  0.93074910  0.93569187    -0.32700
H2435       H  0.21606616  0.88949370  0.94953148     0.14200
H2436       H  0.19705478  0.85610441  0.94964643     0.14000
H2437       H  0.15598877  0.86174826  0.92196412     0.13900
H2438       H  0.17500987  0.89516492  0.92184897     0.12900
C2439       C  0.92406447  0.75324570  0.93558546     0.19300
C2440       C  0.90581249  0.74385165  0.92842570    -0.09900
C2441       C  0.86809615  0.73998801  0.92911962    -0.10700
C2442       C  0.84852618  0.74543395  0.93699558     0.20800
C2443       C  0.86681202  0.75477642  0.94416218    -0.12700
C2444       C  0.90450355  0.75864149  0.94346765    -0.11000
C2445       C  0.80940558  0.74229590  0.93756151     0.01800
C2446       C  0.77627485  0.74124877  0.93790866    -0.31000
C2447       C  0.96317682  0.75643617  0.93506341     0.03200
C2448       C  0.99633471  0.75746931  0.93501555    -0.32700
H2449       H  0.92075050  0.73946181  0.92233595     0.14200
H2450       H  0.85419031  0.73285169  0.92351341     0.14000
H2451       H  0.85189972  0.75914542  0.95025968     0.13900
H2452       H  0.91840461  0.76575733  0.94908109     0.12900
C2453       C  0.42388301  0.75290200  0.93526967     0.19300
C2454       C  0.40171746  0.76528968  0.94034369    -0.09900
C2455       C  0.36402180  0.76170126  0.94128168    -0.10700
C2456       C  0.34838633  0.74568334  0.93717837     0.20800
C2457       C  0.37051765  0.73333458  0.93207020    -0.12700
C2458       C  0.40822478  0.73692397  0.93113204    -0.11000
C2459       C  0.30944260  0.74236137  0.93797877     0.01800
C2460       C  0.27638532  0.74113527  0.93841967    -0.31000
C2461       C  0.46296822  0.75597131  0.93470626     0.03200
C2462       C  0.49609565  0.75699620  0.93467430    -0.32700
H2463       H  0.41360262  0.77760953  0.94362216     0.14200
H2464       H  0.34707592  0.77139733  0.94520205     0.14000
H2465       H  0.35865325  0.72097138  0.92882643     0.13900
H2466       H  0.42520570  0.72718599  0.92724623     0.12900
C2467       C  0.17189255  0.74760231  0.88444106     0.19300
C2468       C  0.14846090  0.75440463  0.87753819    -0.09900
C2469       C  0.16020423  0.75460125  0.86836507    -0.10700
C2470       C  0.19545572  0.74802259  0.86604469     0.20800
C2471       C  0.21878762  0.74111805  0.87293885    -0.12700
C2472       C  0.20704897  0.74091977  0.88210766    -0.11000
C2473       C  0.20751170  0.74827482  0.85659555     0.01800
C2474       C  0.21614114  0.74837529  0.84857780    -0.31000
C2475       C  0.16026212  0.74769786  0.89392912     0.03200
C2476       C  0.15235536  0.74774807  0.90199720    -0.32700
H2477       H  0.12123589  0.75961082  0.87924841     0.14200
H2478       H  0.14185978  0.75991984  0.86309135     0.14000
H2479       H  0.24603879  0.73594142  0.87123212     0.13900
H2480       H  0.22542851  0.73562821  0.88737990     0.12900
C2481       C  0.94574979  0.35644582  0.81004671     0.19300
C2482       C  0.90839383  0.36109058  0.80907840    -0.09900
C2483       C  0.89726955  0.38000198  0.80920139    -0.10700
C2484       C  0.92346497  0.39436476  0.81029740     0.20800
C2485       C  0.96086933  0.38972260  0.81115534    -0.12700
C2486       C  0.97199081  0.37081320  0.81103453    -0.11000
C2487       C  0.91211060  0.41383939  0.81072488     0.01800
C2488       C  0.90441416  0.43037951  0.81123577    -0.31000
C2489       C  0.95685994  0.33693337  0.81024054     0.03200
C2490       C  0.96433579  0.32035810  0.81055487    -0.32700
H2491       H  0.88785683  0.35009143  0.80831520     0.14200
H2492       H  0.86828992  0.38340663  0.80852750     0.14000
H2493       H  0.98137661  0.40070972  0.81200211     0.13900
H2494       H  0.00093315  0.36739835  0.81179383     0.12900
C2495       C  0.79196916  0.64306009  0.81410812     0.19300
C2496       C  0.82866790  0.64131693  0.81701746    -0.09900
C2497       C  0.84603743  0.62366850  0.81695504    -0.10700
C2498       C  0.82685479  0.60763037  0.81396740     0.20800
C2499       C  0.79011392  0.60935627  0.81107662    -0.12700
C2500       C  0.77273655  0.62701413  0.81113816    -0.11000
C2501       C  0.84458081  0.58938001  0.81393314     0.01800
C2502       C  0.85731069  0.57361799  0.81392435    -0.31000
C2503       C  0.77455845  0.66138907  0.81402098     0.03200
C2504       C  0.76243317  0.67727269  0.81386360    -0.32700
H2505       H  0.84388485  0.65361350  0.81930665     0.14200
H2506       H  0.87439207  0.62253862  0.81922420     0.14000
H2507       H  0.77493415  0.59706222  0.80876832     0.13900
H2508       H  0.74440907  0.62815768  0.80884901     0.12900
C2509       C  0.42136333  0.39456103  0.81358256     0.19300
C2510       C  0.45599240  0.38916516  0.81695566    -0.09900
C2511       C  0.46653159  0.37015451  0.81685509    -0.10700
C2512       C  0.44251425  0.35640217  0.81337196     0.20800
C2513       C  0.40777359  0.36177290  0.81005500    -0.12700
C2514       C  0.39723148  0.38079165  0.81015456    -0.11000
C2515       C  0.45347204  0.33682166  0.81315019     0.01800
C2516       C  0.46142003  0.32027224  0.81287215    -0.31000
C2517       C  0.41106567  0.41424555  0.81349639     0.03200
C2518       C  0.40414084  0.43092735  0.81337422    -0.32700
H2519       H  0.47492267  0.39966740  0.81961459     0.14200
H2520       H  0.49342672  0.36619955  0.81944913     0.14000
H2521       H  0.38892515  0.35127595  0.80735436     0.13900
H2522       H  0.37041185  0.38476121  0.80751763     0.12900
C2523       C  0.67377195  0.50055197  0.81347040     0.19300
C2524       C  0.65710264  0.50242493  0.80482777    -0.09900
C2525       C  0.61929044  0.50596972  0.80418684    -0.10700
C2526       C  0.59806653  0.50772247  0.81218755     0.20800
C2527       C  0.61476119  0.50591523  0.82082922    -0.12700
C2528       C  0.65256713  0.50236985  0.82147005    -0.11000
C2529       C  0.55891967  0.51046647  0.81154574     0.01800
C2530       C  0.52580027  0.51129300  0.81122829    -0.31000
C2531       C  0.71280165  0.49738912  0.81412210     0.03200
C2532       C  0.74584213  0.49597889  0.81448564    -0.32700
H2533       H  0.67331919  0.50115083  0.79859988     0.14200
H2534       H  0.60658684  0.50722490  0.79747258     0.14000
H2535       H  0.59852641  0.50712851  0.82705714     0.13900
H2536       H  0.66524484  0.50105348  0.82818445     0.12900
C2537       C  0.09818118  0.50663873  0.81183721     0.19300
C2538       C  0.12086498  0.50729709  0.80405049    -0.09900
C2539       C  0.15860966  0.50365182  0.80487226    -0.10700
C2540       C  0.17379245  0.49926530  0.81347520     0.20800
C2541       C  0.15110317  0.49859837  0.82125739    -0.12700
C2542       C  0.11337267  0.50224408  0.82043612    -0.11000
C2543       C  0.21285348  0.49625918  0.81433609     0.01800
C2544       C  0.24599313  0.49529061  0.81463079    -0.31000
C2545       C  0.05911366  0.50968177  0.81100746     0.03200
C2546       C  0.02595752  0.51065122  0.81080822    -0.32700
H2547       H  0.10938236  0.51056317  0.79736101     0.14200
H2548       H  0.17596674  0.50432003  0.79881646     0.14000
H2549       H  0.16258040  0.49533688  0.82794805     0.13900
H2550       H  0.09602715  0.50158038  0.82649398     0.12900
C2551       C  0.29264794  0.64388043  0.81395210     0.19300
C2552       C  0.28293290  0.62995631  0.82034684    -0.09900
C2553       C  0.30091562  0.61246718  0.82027618    -0.10700
C2554       C  0.32876740  0.60881079  0.81382463     0.20800
C2555       C  0.33864963  0.62279014  0.80747513    -0.12700
C2556       C  0.32067597  0.64027104  0.80754597    -0.11000
C2557       C  0.34597069  0.59045868  0.81348813     0.01800
C2558       C  0.35787983  0.57455487  0.81311713    -0.31000
C2559       C  0.27456894  0.66201295  0.81403098     0.03200
C2560       C  0.26205098  0.67780122  0.81390562    -0.32700
H2561       H  0.26144682  0.63259479  0.82536114     0.14200
H2562       H  0.29291337  0.60175121  0.82519783     0.14000
H2563       H  0.36001041  0.62012889  0.80243024     0.13900
H2564       H  0.32856260  0.65095344  0.80259465     0.12900
C2565       C  0.00039822  0.49913780  0.00926070     0.19300
C2566       C  0.96582168  0.49889626  0.00496399    -0.09900
C2567       C  0.96331235  0.49977148  0.99537044    -0.10700
C2568       C  0.99536810  0.50090919  0.99002211     0.20800
C2569       C  0.02994629  0.50115974  0.99431720    -0.12700
C2570       C  0.03245608  0.50028453  0.00391132    -0.11000
C2571       C  0.99282620  0.50175115  0.98014217     0.01800
C2572       C  0.99109052  0.50230676  0.97186056    -0.31000
C2573       C  0.00291984  0.49834379  0.01914495     0.03200
C2574       C  0.00462214  0.49794068  0.02743149    -0.32700
H2575       H  0.94084240  0.49804271  0.00902634     0.14200
H2576       H  0.93643013  0.49956033  0.99212892     0.14000
H2577       H  0.05492233  0.50202903  0.99025402     0.13900
H2578       H  0.05933752  0.50051146  0.00715263     0.12900
C2579       C  0.94654826  0.39447599  0.93700311     0.19300
C2580       C  0.96689393  0.38071691  0.94169741    -0.09900
C2581       C  0.95590502  0.36177978  0.94139082    -0.10700
C2582       C  0.92449871  0.35647662  0.93639462     0.20800
C2583       C  0.90410845  0.37024674  0.93171376    -0.12700
C2584       C  0.91509881  0.38918750  0.93202089    -0.11000
C2585       C  0.91363253  0.33688938  0.93600675     0.01800
C2586       C  0.90634272  0.32025117  0.93581420    -0.31000
C2587       C  0.95776469  0.41400468  0.93728703     0.03200
C2588       C  0.96564429  0.43056565  0.93733345    -0.32700
H2589       H  0.99122833  0.38461595  0.94557586     0.14200
H2590       H  0.97194054  0.35126895  0.94502861     0.14000
H2591       H  0.87982425  0.36634330  0.92781740     0.13900
H2592       H  0.89911934  0.39969759  0.92836646     0.12900
C2593       C  0.08020460  0.64321102  0.93716745     0.19300
C2594       C  0.05731532  0.63794893  0.94450124    -0.09900
C2595       C  0.03959447  0.62038747  0.94444310    -0.10700
C2596       C  0.04458534  0.60797595  0.93703716     0.20800
C2597       C  0.06763044  0.61319820  0.92972232    -0.12700
C2598       C  0.08535250  0.63076671  0.92977985    -0.11000
C2599       C  0.02693113  0.58970575  0.93703023     0.01800
C2600       C  0.01441140  0.57389847  0.93691448    -0.31000
C2601       C  0.09709997  0.66165579  0.93709284     0.03200
C2602       C  0.10866667  0.67764510  0.93714811    -0.32700
H2603       H  0.05298555  0.64747175  0.95023580     0.14200
H2604       H  0.02202520  0.61649937  0.95016002     0.14000
H2605       H  0.07187917  0.60369516  0.92397645     0.13900
H2606       H  0.10284169  0.63468315  0.92405181     0.12900
C2607       C  0.92316338  0.50232502  0.86575611     0.19300
C2608       C  0.95068791  0.48983954  0.86869865    -0.09900
C2609       C  0.96300259  0.49031649  0.87780869    -0.10700
C2610       C  0.94792039  0.50331345  0.88401940     0.20800
C2611       C  0.92030633  0.51577133  0.88108963    -0.12700
C2612       C  0.90798546  0.51529570  0.87197271    -0.11000
C2613       C  0.96012516  0.50356661  0.89343909     0.01800
C2614       C  0.96858896  0.50343472  0.90145718    -0.31000
C2615       C  0.91122936  0.50204295  0.85631248     0.03200
C2616       C  0.90321532  0.50173360  0.84826439    -0.32700
H2617       H  0.96268097  0.47978115  0.86394642     0.14200
H2618       H  0.98422361  0.48055840  0.88000820     0.14000
H2619       H  0.90831252  0.52581871  0.88584733     0.13900
H2620       H  0.88675403  0.52504472  0.86977043     0.12900
C2621       C  0.50146468  0.50127797  0.00891840     0.19300
C2622       C  0.46922314  0.49566837  0.00436266    -0.09900
C2623       C  0.46770297  0.49592171  0.99474815    -0.10700
C2624       C  0.49841016  0.50178218  0.98964552     0.20800
C2625       C  0.53062175  0.50741375  0.99420106    -0.12700
C2626       C  0.53214178  0.50716067  0.00381335    -0.11000
C2627       C  0.49685612  0.50200461  0.97975104     0.01800
C2628       C  0.49529564  0.50216793  0.97146696    -0.31000
C2629       C  0.50314295  0.50096872  0.01881460     0.03200
C2630       C  0.50464986  0.50068707  0.02710128    -0.32700
H2631       H  0.44532764  0.49109434  0.00823597     0.14200
H2632       H  0.44264698  0.49154411  0.99129814     0.14000
H2633       H  0.55452414  0.51197825  0.99032784     0.13900
H2634       H  0.55720696  0.51152947  0.00726088     0.12900
C2635       C  0.44909171  0.39512343  0.93568145     0.19300
C2636       C  0.46338304  0.38235579  0.92923860    -0.09900
C2637       C  0.45204684  0.36346497  0.92933058    -0.10700
C2638       C  0.42631868  0.35723828  0.93585652     0.20800
C2639       C  0.41205860  0.37000453  0.94230375    -0.12700
C2640       C  0.42339416  0.38889262  0.94221192    -0.11000
C2641       C  0.41507355  0.33771171  0.93599968     0.01800
C2642       C  0.40730042  0.32113817  0.93601548    -0.31000
C2643       C  0.46021354  0.41466391  0.93552652     0.03200
C2644       C  0.46783012  0.43125338  0.93552245    -0.32700
H2645       H  0.48319736  0.38700217  0.92414464     0.14200
H2646       H  0.46334621  0.35371993  0.92432476     0.14000
H2647       H  0.39223619  0.36536233  0.94739644     0.13900
H2648       H  0.41208653  0.39863834  0.94721641     0.12900
C2649       C  0.77363244  0.50759652  0.93675812     0.19300
C2650       C  0.75038005  0.50757431  0.94444162    -0.09900
C2651       C  0.71281437  0.50374381  0.94338217    -0.10700
C2652       C  0.69836370  0.49984888  0.93464293     0.20800
C2653       C  0.72162917  0.49984138  0.92695793    -0.12700
C2654       C  0.75921121  0.50367113  0.92801813    -0.11000
C2655       C  0.65941763  0.49671104  0.93358088     0.01800
C2656       C  0.62628037  0.49568282  0.93329866    -0.31000
C2657       C  0.81253653  0.51076291  0.93785216     0.03200
C2658       C  0.84563664  0.51169932  0.93831225    -0.32700
H2659       H  0.76128850  0.51044783  0.95123579     0.14200
H2660       H  0.69501044  0.50389403  0.94936537     0.14000
H2661       H  0.71071976  0.49695747  0.92016530     0.13900
H2662       H  0.77703350  0.50351058  0.92203829     0.12900
C2663       C  0.27372497  0.50611182  0.93747079     0.19300
C2664       C  0.25098335  0.51994607  0.93359380    -0.09900
C2665       C  0.21307009  0.51676933  0.93281793    -0.10700
C2666       C  0.19777405  0.49973125  0.93589051     0.20800
C2667       C  0.22051363  0.48590041  0.93977067    -0.12700
C2668       C  0.25842640  0.48907733  0.94054674    -0.11000
C2669       C  0.15864080  0.49675251  0.93527631     0.01800
C2670       C  0.12553111  0.49558271  0.93498641    -0.31000
C2671       C  0.31287709  0.50905531  0.93804724     0.03200
C2672       C  0.34600110  0.51018062  0.93826520    -0.32700
H2673       H  0.26254875  0.53312589  0.93115444     0.14200
H2674       H  0.19568471  0.52759204  0.92984192     0.14000
H2675       H  0.20895262  0.47271416  0.94220300     0.13900
H2676       H  0.27581564  0.47824849  0.94351596     0.12900
C2677       C  0.57727139  0.64408926  0.93562365     0.19300
C2678       C  0.56654396  0.63572953  0.92730155    -0.09900
C2679       C  0.54844021  0.61826731  0.92730641    -0.10700
C2680       C  0.54084414  0.60910524  0.93563530     0.20800
C2681       C  0.55148198  0.61749621  0.94395380    -0.12700
C2682       C  0.56957883  0.63494409  0.94394888    -0.11000
C2683       C  0.52371126  0.59073490  0.93564504     0.01800
C2684       C  0.51204620  0.57477639  0.93578110    -0.31000
C2685       C  0.59494278  0.66232898  0.93566964     0.03200
C2686       C  0.60738802  0.67812949  0.93592346    -0.32700
H2687       H  0.57212812  0.64270873  0.92082220     0.14200
H2688       H  0.54055862  0.61187370  0.92082830     0.14000
H2689       H  0.54597267  0.61050636  0.95043509     0.13900
H2690       H  0.57752375  0.64130983  0.95042909     0.12900
C2691       C  0.44651692  0.50366677  0.88364161     0.19300
C2692       C  0.46319025  0.51583150  0.87728735    -0.09900
C2693       C  0.45159621  0.51589403  0.86810688    -0.10700
C2694       C  0.42321119  0.50381622  0.86523163     0.20800
C2695       C  0.40651865  0.49166458  0.87158881    -0.12700
C2696       C  0.41811308  0.49160215  0.88076939    -0.11000
C2697       C  0.41162226  0.50374959  0.85574601     0.01800
C2698       C  0.40335602  0.50377215  0.84770403    -0.31000
C2699       C  0.45814599  0.50371979  0.89312120     0.03200
C2700       C  0.46656961  0.50383755  0.90115064    -0.32700
H2701       H  0.48509860  0.52525740  0.87942797     0.14200
H2702       H  0.46477019  0.52533057  0.86325455     0.14000
H2703       H  0.38460668  0.48224101  0.86944917     0.13900
H2704       H  0.40493758  0.48216877  0.88562283     0.12900
C2705       C  0.74177906  0.74923767  0.75988029     0.19300
C2706       C  0.71513390  0.75868725  0.75464851    -0.09900
C2707       C  0.71751517  0.75872933  0.74504670    -0.10700
C2708       C  0.74655709  0.74932363  0.74064173     0.20800
C2709       C  0.77313172  0.73983199  0.74587448    -0.12700
C2710       C  0.77075145  0.73979009  0.75547286    -0.11000
C2711       C  0.74924136  0.74949573  0.73076876     0.01800
C2712       C  0.75159775  0.74969981  0.72250024    -0.31000
C2713       C  0.73951318  0.74928148  0.76975937     0.03200
C2714       C  0.73798469  0.74926069  0.77803996    -0.32700
H2715       H  0.69261577  0.76603517  0.75798741     0.14200
H2716       H  0.69681392  0.76611373  0.74106633     0.14000
H2717       H  0.79569630  0.73251556  0.74253867     0.13900
H2718       H  0.79149981  0.73243756  0.75945215     0.12900
C2719       C  0.24308589  0.74970573  0.75987175     0.19300
C2720       C  0.21748939  0.76002826  0.75470049    -0.09900
C2721       C  0.22029731  0.76060038  0.74510324    -0.10700
C2722       C  0.24873585  0.75086399  0.74061950     0.20800
C2723       C  0.27419080  0.74043789  0.74578655    -0.12700
C2724       C  0.27138272  0.73986571  0.75538452    -0.11000
C2725       C  0.25180204  0.75158774  0.73073658     0.01800
C2726       C  0.25408981  0.75205693  0.72245570    -0.31000
C2727       C  0.24063260  0.74943212  0.76977030     0.03200
C2728       C  0.23899749  0.74939769  0.77806371    -0.32700
H2729       H  0.19549491  0.76769370  0.75808649     0.14200
H2730       H  0.20040441  0.76867754  0.74118702     0.14000
H2731       H  0.29625168  0.73281944  0.74240217     0.13900
H2732       H  0.29134135  0.73183564  0.75930314     0.12900
C2733       C  0.54894435  0.74849587  0.68578919     0.19300
C2734       C  0.52474367  0.73337535  0.68718712    -0.09900
C2735       C  0.48712607  0.73677593  0.68845258    -0.10700
C2736       C  0.47357895  0.75530823  0.68835666     0.20800
C2737       C  0.49781364  0.77044100  0.68701461    -0.12700
C2738       C  0.53544086  0.76703952  0.68575033    -0.11000
C2739       C  0.43462822  0.75858408  0.68925973     0.01800
C2740       C  0.40150289  0.75969197  0.68948080    -0.31000
C2741       C  0.58778906  0.74515584  0.68469704     0.03200
C2742       C  0.62086989  0.74388698  0.68436445    -0.32700
H2743       H  0.53492916  0.71900179  0.68729618     0.14200
H2744       H  0.46857340  0.72496332  0.68944833     0.14000
H2745       H  0.48761739  0.78481180  0.68689130     0.13900
H2746       H  0.55399420  0.77884752  0.68474151     0.12900
C2747       C  0.97302701  0.75461526  0.68824613     0.19300
C2748       C  0.99744827  0.76397866  0.69414771    -0.09900
C2749       C  0.03538568  0.76086894  0.69338307    -0.10700
C2750       C  0.04905433  0.74836986  0.68672648     0.20800
C2751       C  0.02462821  0.73896201  0.68084172    -0.12700
C2752       C  0.98668678  0.74207110  0.68160684    -0.11000
C2753       C  0.08817602  0.74558195  0.68586707     0.01800
C2754       C  0.12129297  0.74456747  0.68546779    -0.31000
C2755       C  0.93393100  0.75759324  0.68903474     0.03200
C2756       C  0.90081939  0.75877130  0.68935939    -0.32700
H2757       H  0.98718943  0.77365874  0.69932077     0.14200
H2758       H  0.05406570  0.76824671  0.69795716     0.14000
H2759       H  0.03489348  0.72930109  0.67566075     0.13900
H2760       H  0.96800848  0.73471180  0.67702521     0.12900
C2761       C  0.80123094  0.75263942  0.63479431     0.19300
C2762       C  0.78612520  0.73965990  0.62857416    -0.09900
C2763       C  0.79728367  0.73976164  0.61936552    -0.10700
C2764       C  0.82365445  0.75281683  0.61633445     0.20800
C2765       C  0.83885235  0.76576035  0.62255992    -0.12700
C2766       C  0.82769145  0.76565800  0.63177154    -0.11000
C2767       C  0.83463598  0.75302929  0.60681754     0.01800
C2768       C  0.84219117  0.75289335  0.59874011    -0.31000
C2769       C  0.78977298  0.75256954  0.64427690     0.03200
C2770       C  0.78128289  0.75262533  0.65229670    -0.32700
H2771       H  0.76571600  0.72950548  0.63083597     0.14200
H2772       H  0.78530303  0.72970630  0.61460851     0.14000
H2773       H  0.85921247  0.77593467  0.62029251     0.13900
H2774       H  0.83961937  0.77573265  0.63652673     0.12900
C2775       C  0.57062883  0.74993273  0.56355495     0.19300
C2776       C  0.58988316  0.75769908  0.57100725    -0.09900
C2777       C  0.62774235  0.76117686  0.57030167    -0.10700
C2778       C  0.64650100  0.75697787  0.56212535     0.20800
C2779       C  0.62724455  0.74921354  0.55467516    -0.12700
C2780       C  0.58938932  0.74573506  0.55538076    -0.11000
C2781       C  0.68576165  0.75972068  0.56154035     0.01800
C2782       C  0.71896584  0.76043659  0.56138298    -0.31000
C2783       C  0.53145733  0.74689918  0.56418835     0.03200
C2784       C  0.49834571  0.74557293  0.56455092    -0.32700
H2785       H  0.57563260  0.76108417  0.57734617     0.14200
H2786       H  0.64239934  0.76703535  0.57613521     0.14000
H2787       H  0.64151919  0.74576309  0.54834828     0.13900
H2788       H  0.57476065  0.73980996  0.54955919     0.12900
C2789       C  0.07129773  0.75120165  0.56355868     0.19300
C2790       C  0.09156279  0.75871786  0.57089921    -0.09900
C2791       C  0.12901519  0.76279749  0.56979287    -0.10700
C2792       C  0.14633448  0.75944936  0.56133266     0.20800
C2793       C  0.12602741  0.75202304  0.55397723    -0.12700
C2794       C  0.08856557  0.74794522  0.55508338    -0.11000
C2795       C  0.18542089  0.76233005  0.56043646     0.01800
C2796       C  0.21861307  0.76285622  0.56027697    -0.31000
C2797       C  0.03250037  0.74756726  0.56459465     0.03200
C2798       C  0.99951044  0.74588105  0.56511871    -0.32700
H2799       H  0.07843514  0.76140725  0.57746374     0.14200
H2800       H  0.14454586  0.76836502  0.57555332     0.14000
H2801       H  0.13921975  0.74920768  0.54743352     0.13900
H2802       H  0.07308762  0.74225245  0.54934350     0.12900
C2803       C  0.29779973  0.75267328  0.63436776     0.19300
C2804       C  0.31898114  0.73774625  0.63088148    -0.09900
C2805       C  0.33062074  0.73792613  0.62170504    -0.10700
C2806       C  0.32121359  0.75305601  0.61596584     0.20800
C2807       C  0.30004378  0.76798858  0.61945432    -0.12700
C2808       C  0.28840252  0.76780867  0.62863258    -0.11000
C2809       C  0.33246335  0.75305897  0.60645389     0.01800
C2810       C  0.34021358  0.75292834  0.59837944    -0.31000
C2811       C  0.28638945  0.75257964  0.64386336     0.03200
C2812       C  0.27854724  0.75231433  0.65192804    -0.32700
H2813       H  0.32651354  0.72599280  0.63525588     0.14200
H2814       H  0.34684779  0.72626682  0.61908370     0.14000
H2815       H  0.29247418  0.77972991  0.61507703     0.13900
H2816       H  0.27213697  0.77945426  0.63125350     0.12900
C2817       C  0.62418652  0.00110187  0.75997693     0.19300
C2818       C  0.62806189  0.98394411  0.75526541    -0.09900
C2819       C  0.62486884  0.98337046  0.74567340    -0.10700
C2820       C  0.61777036  0.99994951  0.74072719     0.20800
C2821       C  0.61381809  0.01710589  0.74543904    -0.12700
C2822       C  0.61701205  0.01767970  0.75503330    -0.11000
C2823       C  0.61498176  0.99938055  0.73082966     0.01800
C2824       C  0.61319376  0.99892715  0.72253664    -0.31000
C2825       C  0.62736519  0.00166655  0.76986750     0.03200
C2826       C  0.62962934  0.00205307  0.77815424    -0.32700
H2827       H  0.63356634  0.97102649  0.75900268     0.14200
H2828       H  0.62801524  0.97002359  0.74211651     0.14000
H2829       H  0.60835973  0.03002588  0.74169934     0.13900
H2830       H  0.61391326  0.03102929  0.75859047     0.12900
C2831       C  0.70080756  0.85661556  0.68635377     0.19300
C2832       C  0.66549428  0.85865093  0.69015944    -0.09900
C2833       C  0.64786316  0.87623519  0.69005382    -0.10700
C2834       C  0.66539433  0.89190629  0.68612707     0.20800
C2835       C  0.70062714  0.88984366  0.68227640    -0.12700
C2836       C  0.71826103  0.87225835  0.68238292    -0.11000
C2837       C  0.64791143  0.91022158  0.68627913     0.01800
C2838       C  0.63568523  0.92608393  0.68653696    -0.31000
C2839       C  0.71882714  0.83844814  0.68650857     0.03200
C2840       C  0.73160012  0.82270777  0.68676031    -0.32700
H2841       H  0.65165639  0.84666216  0.69323488     0.14200
H2842       H  0.62070855  0.87763112  0.69308019     0.14000
H2843       H  0.71455043  0.90185356  0.67924592     0.13900
H2844       H  0.74550134  0.87088118  0.67940276     0.12900
C2845       C  0.12520304  0.99982048  0.75876190     0.19300
C2846       C  0.15704083  0.00013411  0.75331120    -0.09900
C2847       C  0.15411026  0.99983668  0.74372245    -0.10700
C2848       C  0.11933496  0.99923188  0.73954253     0.20800
C2849       C  0.08748945  0.99890255  0.74499204    -0.12700
C2850       C  0.09042060  0.99919981  0.75458287    -0.11000
C2851       C  0.11641113  0.99903640  0.72967372     0.01800
C2852       C  0.11456253  0.99894840  0.72139669    -0.31000
C2853       C  0.12818770  0.00019923  0.76862921     0.03200
C2854       C  0.13030319  0.00061787  0.77690062    -0.32700
H2855       H  0.18406870  0.00062679  0.75646931     0.14200
H2856       H  0.17891112  0.00010418  0.73957278     0.14000
H2857       H  0.06046250  0.99844354  0.74183217     0.13900
H2858       H  0.06562080  0.99896585  0.75873333     0.12900
C2859       C  0.82041374  0.00109769  0.68518400     0.19300
C2860       C  0.83784821  0.00070997  0.69378230    -0.09900
C2861       C  0.87567409  0.99711214  0.69438300    -0.10700
C2862       C  0.89624783  0.99381304  0.68638845     0.20800
C2863       C  0.87885387  0.99426504  0.67778484    -0.12700
C2864       C  0.84100646  0.99786124  0.67718385    -0.11000
C2865       C  0.93539743  0.99071394  0.68697618     0.01800
C2866       C  0.96852875  0.98954353  0.68729963    -0.31000
C2867       C  0.78117012  0.00394923  0.68465280     0.03200
C2868       C  0.74798296  0.00493863  0.68466475    -0.32700
H2869       H  0.82216292  0.00308418  0.70001848     0.14200
H2870       H  0.88886630  0.99693097  0.70106667     0.14000
H2871       H  0.89454682  0.99186693  0.67155242     0.13900
H2872       H  0.82779515  0.99801796  0.67050297     0.12900
C2873       C  0.39584946  0.99521863  0.68598571     0.19300
C2874       C  0.38212172  0.01369190  0.68645834    -0.09900
C2875       C  0.34448096  0.01709664  0.68523109    -0.10700
C2876       C  0.32044612  0.00203809  0.68350448     0.20800
C2877       C  0.33423151  0.98358566  0.68295165    -0.12700
C2878       C  0.37186514  0.98018105  0.68418104    -0.11000
C2879       C  0.28140586  0.00524980  0.68282346     0.01800
C2880       C  0.24827034  0.00636118  0.68289266    -0.31000
C2881       C  0.43463337  0.99185265  0.68718777     0.03200
C2882       C  0.46760198  0.99041082  0.68787592    -0.32700
H2883       H  0.40048830  0.02543510  0.68781270     0.14200
H2884       H  0.33408835  0.03139722  0.68572758     0.14000
H2885       H  0.31582634  0.97182203  0.68167455     0.13900
H2886       H  0.38221081  0.96586085  0.68376359     0.12900
C2887       C  0.20478327  0.85732160  0.68668133     0.19300
C2888       C  0.19788560  0.86702382  0.69490965    -0.09900
C2889       C  0.18012714  0.88457585  0.69475592    -0.10700
C2890       C  0.16902239  0.89253286  0.68637571     0.20800
C2891       C  0.17590732  0.88282523  0.67814646    -0.12700
C2892       C  0.19366695  0.86527110  0.67830032    -0.11000
C2893       C  0.15171694  0.91089748  0.68620730     0.01800
C2894       C  0.13937145  0.92674724  0.68616401    -0.31000
C2895       C  0.22200859  0.83894448  0.68685945     0.03200
C2896       C  0.23410029  0.82304919  0.68692763    -0.32700
H2897       H  0.20612887  0.86100143  0.70143756     0.14200
H2898       H  0.17514503  0.89195760  0.70116553     0.14000
H2899       H  0.16764021  0.88884081  0.67161910     0.13900
H2900       H  0.19862694  0.85788013  0.67189194     0.12900
C2901       C  0.45361836  0.89286599  0.56249620     0.19300
C2902       C  0.45185730  0.88195451  0.55445991    -0.09900
C2903       C  0.43387843  0.86444990  0.55453357    -0.10700
C2904       C  0.41745254  0.85777446  0.56263426     0.20800
C2905       C  0.41895568  0.86876423  0.57064474    -0.12700
C2906       C  0.43692556  0.88625532  0.57057131    -0.11000
C2907       C  0.40044247  0.83935258  0.56283249     0.01800
C2908       C  0.38833785  0.82346995  0.56308338    -0.31000
C2909       C  0.47163762  0.91103749  0.56243381     0.03200
C2910       C  0.48443411  0.92678253  0.56255502    -0.32700
H2911       H  0.46442154  0.88695091  0.54815698     0.14200
H2912       H  0.43302572  0.85606905  0.54830038     0.14000
H2913       H  0.40649184  0.86375229  0.57695737     0.13900
H2914       H  0.43786602  0.89460435  0.57681418     0.12900
C2915       C  0.57380770  0.99709383  0.63413560     0.19300
C2916       C  0.55637713  0.98123820  0.63032601    -0.09900
C2917       C  0.54491271  0.98140083  0.62112674    -0.10700
C2918       C  0.55074035  0.99743412  0.61567139     0.20800
C2919       C  0.56821292  0.01327989  0.61947790    -0.12700
C2920       C  0.57967653  0.01311732  0.62867670    -0.11000
C2921       C  0.53954439  0.99751373  0.60613597     0.01800
C2922       C  0.53173323  0.99766519  0.59805415    -0.31000
C2923       C  0.58477324  0.99707135  0.64368775     0.03200
C2924       C  0.59229643  0.99701601  0.65178689    -0.32700
H2925       H  0.55155410  0.96877993  0.63447198     0.14200
H2926       H  0.53155993  0.96903603  0.61827037     0.14000
H2927       H  0.57300568  0.02574496  0.61533460     0.13900
H2928       H  0.59299793  0.02548896  0.63153515     0.12900
C2929       C  0.72463783  0.99321041  0.56023098     0.19300
C2930       C  0.73775788  0.01127955  0.56241898    -0.09900
C2931       C  0.77561734  0.01453038  0.56322139    -0.10700
C2932       C  0.80052922  0.99971570  0.56184335     0.20800
C2933       C  0.78742744  0.98163472  0.55965084    -0.12700
C2934       C  0.74953212  0.97838008  0.55884925    -0.11000
C2935       C  0.83952341  0.00298622  0.56263984     0.01800
C2936       C  0.87254039  0.00454386  0.56311439    -0.31000
C2937       C  0.68557835  0.99001135  0.55963080     0.03200
C2938       C  0.65242417  0.98911953  0.55964959    -0.32700
H2939       H  0.71870022  0.02283099  0.56353598     0.14200
H2940       H  0.78543896  0.02855125  0.56492171     0.14000
H2941       H  0.80649479  0.97007300  0.55857461     0.13900
H2942       H  0.73967516  0.96434557  0.55719013     0.12900
C2943       C  0.22503912  0.99189433  0.56125518     0.19300
C2944       C  0.24658805  0.97978654  0.56664032    -0.09900
C2945       C  0.28437141  0.98316019  0.56763124    -0.10700
C2946       C  0.30071628  0.99869376  0.56327220     0.20800
C2947       C  0.27919104  0.01074881  0.55785718    -0.12700
C2948       C  0.24142715  0.00737427  0.55686499    -0.11000
C2949       C  0.33971208  0.00191657  0.56415169     0.01800
C2950       C  0.37273916  0.00350979  0.56458899    -0.31000
C2951       C  0.18584177  0.98911513  0.56061133     0.03200
C2952       C  0.15265122  0.98850395  0.56046196    -0.32700
H2953       H  0.23415640  0.96785792  0.57011956     0.14200
H2954       H  0.30081352  0.97369125  0.57179757     0.14000
H2955       H  0.29157429  0.02274170  0.55441946     0.13900
H2956       H  0.22496085  0.01690722  0.55273912     0.12900
C2957       C  0.91737404  0.85724476  0.56256943     0.19300
C2958       C  0.94186731  0.86240059  0.56959737    -0.09900
C2959       C  0.95924489  0.88005455  0.56943001    -0.10700
C2960       C  0.95234958  0.89269052  0.56222282     0.20800
C2961       C  0.92801893  0.88749856  0.55515995    -0.12700
C2962       C  0.91063044  0.86982859  0.55532687    -0.11000
C2963       C  0.96922618  0.91117854  0.56224167     0.01800
C2964       C  0.98157766  0.92703386  0.56241215    -0.31000
C2965       C  0.89990371  0.83890867  0.56273337     0.03200
C2966       C  0.88749167  0.82307546  0.56300281    -0.32700
H2967       H  0.94748956  0.85278388  0.57521222     0.14200
H2968       H  0.97787831  0.88388936  0.57494628     0.14000
H2969       H  0.92233611  0.89714145  0.54956003     0.13900
H2970       H  0.89192243  0.86600043  0.54982551     0.12900
C2971       C  0.04733657  0.99877822  0.61511030     0.19300
C2972       C  0.08302056  0.00454655  0.61752630    -0.09900
C2973       C  0.09413329  0.00434352  0.62674119    -0.10700
C2974       C  0.06963027  0.99835575  0.63359142     0.20800
C2975       C  0.03387778  0.99268767  0.63118225    -0.12700
C2976       C  0.02276389  0.99288963  0.62196586    -0.11000
C2977       C  0.08107852  0.99796789  0.64308049     0.01800
C2978       C  0.08942490  0.99756120  0.65111134    -0.31000
C2979       C  0.03625894  0.99870431  0.60559133     0.03200
C2980       C  0.02872335  0.99867931  0.59750772    -0.32700
H2981       H  0.10227369  0.00912353  0.61228605     0.14200
H2982       H  0.12181183  0.00878469  0.62851716     0.14000
H2983       H  0.01466540  0.98805709  0.63642040     0.13900
H2984       H  0.99512410  0.98839382  0.62018584     0.12900
C2985       C  0.55077538  0.10612800  0.56171180     0.19300
C2986       C  0.53505233  0.11865091  0.55537313    -0.09900
C2987       C  0.54630060  0.13755658  0.55516414    -0.10700
C2988       C  0.57337826  0.14403840  0.56128174     0.20800
C2989       C  0.58915593  0.13149956  0.56760137    -0.12700
C2990       C  0.57791184  0.11260298  0.56781051    -0.11000
C2991       C  0.58424427  0.16362687  0.56122533     0.01800
C2992       C  0.59180017  0.18022847  0.56129398    -0.31000
C2993       C  0.53957328  0.08659545  0.56189861     0.03200
C2994       C  0.53186817  0.07001958  0.56211281    -0.32700
H2995       H  0.51412772  0.11381219  0.55060640     0.14200
H2996       H  0.53380665  0.14712345  0.55026470     0.14000
H2997       H  0.61001901  0.13634145  0.57238414     0.13900
H2998       H  0.59034916  0.10305055  0.57272588     0.12900
C2999       C  0.07085889  0.14446589  0.56109008     0.19300
C3000       C  0.05627472  0.13616697  0.55312586    -0.09900
C3001       C  0.04498601  0.11726274  0.55322004    -0.10700
C3002       C  0.04815279  0.10656087  0.56128494     0.20800
C3003       C  0.06261574  0.11488537  0.56925449    -0.12700
C3004       C  0.07390146  0.13377964  0.56916009    -0.11000
C3005       C  0.03763227  0.08692203  0.56133103     0.01800
C3006       C  0.03061525  0.07025918  0.56144219    -0.31000
C3007       C  0.08195395  0.16401956  0.56104648     0.03200
C3008       C  0.08978917  0.18058560  0.56113639    -0.32700
H3009       H  0.05363691  0.14429886  0.54685385     0.14200
H3010       H  0.03396079  0.11098011  0.54700712     0.14000
H3011       H  0.06531546  0.10675117  0.57552438     0.13900
H3012       H  0.08498320  0.14004779  0.57537056     0.12900
C3013       C  0.82288763  0.25120980  0.56203265     0.19300
C3014       C  0.84417489  0.25541655  0.56979989    -0.09900
C3015       C  0.88183107  0.25911329  0.56886330    -0.10700
C3016       C  0.89834559  0.25868447  0.56015477     0.20800
C3017       C  0.87706602  0.25449018  0.55237895    -0.12700
C3018       C  0.83937492  0.25079666  0.55331595    -0.11000
C3019       C  0.93746070  0.26147688  0.55932777     0.01800
C3020       C  0.97063604  0.26213468  0.55922561    -0.31000
C3021       C  0.78390931  0.24804696  0.56295237     0.03200
C3022       C  0.75086813  0.24665178  0.56342433    -0.32700
H3023       H  0.83166834  0.25586808  0.57656311     0.14200
H3024       H  0.89811554  0.26217786  0.57492955     0.14000
H3025       H  0.88962532  0.25395807  0.54562329     0.13900
H3026       H  0.82310034  0.24765312  0.54725783     0.12900
C3027       C  0.39815160  0.25800603  0.56009241     0.19300
C3028       C  0.37998467  0.24698547  0.55349045    -0.09900
C3029       C  0.34227899  0.24325915  0.55437254    -0.10700
C3030       C  0.32259158  0.25047828  0.56188294     0.20800
C3031       C  0.34071600  0.26158549  0.56845763    -0.12700
C3032       C  0.37841988  0.26531044  0.56757595    -0.11000
C3033       C  0.28359193  0.24708414  0.56269005     0.01800
C3034       C  0.25053388  0.24560799  0.56317199    -0.31000
C3035       C  0.43738271  0.26079944  0.55947911     0.03200
C3036       C  0.47059144  0.26139801  0.55933184    -0.32700
H3037       H  0.39502953  0.24114023  0.54771550     0.14200
H3038       H  0.32851349  0.23475329  0.54921577     0.14000
H3039       H  0.32571610  0.26733953  0.57426149     0.13900
H3040       H  0.39222727  0.27372318  0.57276196     0.12900
C3041       C  0.49365962  0.25201484  0.75818923     0.19300
C3042       C  0.47239907  0.26460222  0.75298970    -0.09900
C3043       C  0.47536478  0.26476486  0.74339261    -0.10700
C3044       C  0.49960226  0.25234375  0.73894460     0.20800
C3045       C  0.52106963  0.23986068  0.74415310    -0.12700
C3046       C  0.51810535  0.23969889  0.75374832    -0.11000
C3047       C  0.50205957  0.25224663  0.72904749     0.01800
C3048       C  0.50367259  0.25215972  0.72075457    -0.31000
C3049       C  0.49029297  0.25162307  0.76806056     0.03200
C3050       C  0.48797509  0.25106496  0.77633284    -0.32700
H3051       H  0.45344506  0.27420894  0.75634562     0.14200
H3052       H  0.45864184  0.27448834  0.73944264     0.14000
H3053       H  0.53991997  0.23019965  0.74079837     0.13900
H3054       H  0.53472243  0.22992414  0.75769705     0.12900
C3055       C  0.56830575  0.10558392  0.68624422     0.19300
C3056       C  0.59073366  0.11936246  0.68218746    -0.09900
C3057       C  0.57936951  0.13824301  0.68201778    -0.10700
C3058       C  0.54549122  0.14347950  0.68589805     0.20800
C3059       C  0.52301288  0.12970025  0.68994201    -0.12700
C3060       C  0.53438119  0.11081016  0.69011114    -0.11000
C3061       C  0.53429280  0.16302537  0.68584346     0.01800
C3062       C  0.52696823  0.17965684  0.68577565    -0.31000
C3063       C  0.57982840  0.08608342  0.68637004     0.03200
C3064       C  0.58798810  0.06955136  0.68648551    -0.32700
H3065       H  0.61697169  0.11551744  0.67916173     0.14200
H3066       H  0.59703405  0.14876257  0.67888544     0.14000
H3067       H  0.49680338  0.13355792  0.69297955     0.13900
H3068       H  0.51674889  0.10029141  0.69325502     0.12900
C3069       C  0.57408240  0.25440286  0.61435143     0.19300
C3070       C  0.56470603  0.27133931  0.61876569    -0.09900
C3071       C  0.55247924  0.27115164  0.62790365    -0.10700
C3072       C  0.54947368  0.25402154  0.63266941     0.20800
C3073       C  0.55887859  0.23710384  0.62825076    -0.12700
C3074       C  0.57109917  0.23729182  0.61912240    -0.11000
C3075       C  0.53764012  0.25377550  0.64214417     0.01800
C3076       C  0.52943799  0.25325858  0.65019153    -0.31000
C3077       C  0.58567301  0.25446625  0.60486114     0.03200
C3078       C  0.59354420  0.25413425  0.59679361    -0.32700
H3079       H  0.56673431  0.28465322  0.61514099     0.14200
H3080       H  0.54542687  0.28433596  0.63124902     0.14000
H3081       H  0.55681056  0.22377910  0.63186478     0.13900
H3082       H  0.57810133  0.22409841  0.61577801     0.12900
C3083       C  0.99415951  0.24833462  0.75847580     0.19300
C3084       C  0.00663679  0.26497095  0.75428949    -0.09900
C3085       C  0.00906644  0.26611672  0.74470234    -0.10700
C3086       C  0.99903339  0.25062699  0.73925204     0.20800
C3087       C  0.98655502  0.23399195  0.74343356    -0.12700
C3088       C  0.98412490  0.23284572  0.75302126    -0.11000
C3089       C  0.00157149  0.25174916  0.72938428     0.01800
C3090       C  0.00350590  0.25234471  0.72110978    -0.31000
C3091       C  0.99163418  0.24722256  0.76835319     0.03200
C3092       C  0.98977484  0.24676706  0.77663792    -0.32700
H3093       H  0.01446735  0.27703929  0.75843388     0.14200
H3094       H  0.01875468  0.27904878  0.74154670     0.14000
H3095       H  0.97872699  0.22192658  0.73928617     0.13900
H3096       H  0.97443631  0.21991277  0.75617452     0.12900
C3097       C  0.06963791  0.10607073  0.68633926     0.19300
C3098       C  0.03265864  0.11079375  0.68795546    -0.09900
C3099       C  0.02171411  0.12974515  0.68814332    -0.10700
C3100       C  0.04769867  0.14408757  0.68671409     0.20800
C3101       C  0.08470428  0.13936396  0.68515435    -0.12700
C3102       C  0.09564379  0.12042019  0.68496564    -0.11000
C3103       C  0.03654515  0.16363286  0.68672952     0.01800
C3104       C  0.02900015  0.18023172  0.68658318    -0.31000
C3105       C  0.08073049  0.08652028  0.68606148     0.03200
C3106       C  0.08852807  0.06994911  0.68590656    -0.32700
H3107       H  0.01228735  0.09983034  0.68903760     0.14200
H3108       H  0.99303981  0.13320118  0.68935925     0.14000
H3109       H  0.10506152  0.15032227  0.68404334     0.13900
H3110       H  0.12429913  0.11696852  0.68371995     0.12900
C3111       C  0.72300049  0.25747747  0.68810894     0.19300
C3112       C  0.74257100  0.26655725  0.68108590    -0.09900
C3113       C  0.78047793  0.26362468  0.68015814    -0.10700
C3114       C  0.79892545  0.25154212  0.68622890     0.20800
C3115       C  0.77948451  0.24271020  0.69335261    -0.12700
C3116       C  0.74155253  0.24564146  0.69427999    -0.11000
C3117       C  0.83784287  0.24840958  0.68520034     0.01800
C3118       C  0.87077476  0.24676555  0.68454789    -0.31000
C3119       C  0.68360597  0.25933029  0.68858900     0.03200
C3120       C  0.65042557  0.25962740  0.68843539    -0.32700
H3121       H  0.72843913  0.27565500  0.67624980     0.14200
H3122       H  0.79531905  0.27062181  0.67466534     0.14000
H3123       H  0.79356109  0.23344218  0.69812137     0.13900
H3124       H  0.72662501  0.23847336  0.69970537     0.06500
C3125       C  0.29846845  0.25070296  0.68529448     0.19300
C3126       C  0.27933320  0.24244735  0.69263111    -0.09900
C3127       C  0.24162679  0.24583932  0.69374300    -0.10700
C3128       C  0.22296006  0.25756527  0.68754425     0.20800
C3129       C  0.24212286  0.26586378  0.68022516    -0.12700
C3130       C  0.27982001  0.26247154  0.67911312    -0.11000
C3131       C  0.18379923  0.26017275  0.68836406     0.01800
C3132       C  0.15063077  0.26085909  0.68850347    -0.31000
C3133       C  0.33745472  0.24767056  0.68430113     0.03200
C3134       C  0.37049290  0.24630062  0.68380368    -0.32700
H3135       H  0.29354503  0.23341137  0.69748023     0.14200
H3136       H  0.22699531  0.23922159  0.69938039     0.14000
H3137       H  0.22787789  0.27482184  0.67534775     0.13900
H3138       H  0.29440681  0.26901193  0.67344715     0.12900
C3139       C  0.04988109  0.25481100  0.63314535     0.19300
C3140       C  0.02612477  0.26113875  0.62620381    -0.09900
C3141       C  0.03770416  0.26106315  0.61701407    -0.10700
C3142       C  0.07311049  0.25467534  0.61470579     0.20800
C3143       C  0.09696735  0.24850571  0.62165829    -0.12700
C3144       C  0.08539327  0.24858358  0.63084506    -0.11000
C3145       C  0.08453818  0.25410167  0.60519750     0.01800
C3146       C  0.09243729  0.25348074  0.59712937    -0.31000
C3147       C  0.03791384  0.25449901  0.64261181     0.03200
C3148       C  0.02961498  0.25389115  0.65065242    -0.32700
H3149       H  0.99863397  0.26600835  0.62788474     0.14200
H3150       H  0.01897416  0.26585591  0.61170535     0.14000
H3151       H  0.12437500  0.24352008  0.61997415     0.13900
H3152       H  0.10404412  0.24367715  0.63614673     0.12900
C3153       C  0.86796613  0.50273030  0.74040598     0.19300
C3154       C  0.83803430  0.50890022  0.74571147    -0.09900
C3155       C  0.84071714  0.50936752  0.75531403    -0.10700
C3156       C  0.87335927  0.50368397  0.75966102     0.20800
C3157       C  0.90324277  0.49747515  0.75435538    -0.12700
C3158       C  0.90056151  0.49700811  0.74475770    -0.11000
C3159       C  0.87619789  0.50416810  0.76954732     0.01800
C3160       C  0.87849676  0.50434858  0.77782772    -0.31000
C3161       C  0.86522954  0.50214497  0.73051702     0.03200
C3162       C  0.86329953  0.50142271  0.72223578    -0.32700
H3163       H  0.81266691  0.51332792  0.74243022     0.14200
H3164       H  0.81739337  0.51415634  0.75934137     0.14000
H3165       H  0.92858721  0.49300720  0.75763503     0.13900
H3166       H  0.92386551  0.49217893  0.74073475     0.12900
C3167       C  0.79738416  0.64336910  0.68552781     0.19300
C3168       C  0.77326172  0.62959315  0.68211241    -0.09900
C3169       C  0.78404169  0.61062328  0.68190462    -0.10700
C3170       C  0.81901082  0.60533925  0.68509938     0.20800
C3171       C  0.84312348  0.61911991  0.68850469    -0.12700
C3172       C  0.83235014  0.63807790  0.68871253    -0.11000
C3173       C  0.82981027  0.58576117  0.68504193     0.01800
C3174       C  0.83752360  0.56919371  0.68517774    -0.31000
C3175       C  0.78651317  0.66293377  0.68575813     0.03200
C3176       C  0.77910293  0.67953277  0.68603387    -0.32700
H3177       H  0.74617076  0.63350443  0.67962845     0.14200
H3178       H  0.76510845  0.60008481  0.67928350     0.14000
H3179       H  0.87016720  0.61520773  0.69102051     0.13900
H3180       H  0.85124503  0.64860092  0.69136571     0.12900
C3181       C  0.95071255  0.35712551  0.68646959     0.19300
C3182       C  0.96084668  0.37120176  0.68019817    -0.09900
C3183       C  0.94284058  0.38866791  0.68029074    -0.10700
C3184       C  0.91453148  0.39213103  0.68663781     0.20800
C3185       C  0.90424174  0.37801386  0.69286995    -0.12700
C3186       C  0.92224634  0.36054782  0.69277705    -0.11000
C3187       C  0.89709005  0.41039147  0.68695058     0.01800
C3188       C  0.88494421  0.42623435  0.68723379    -0.31000
C3189       C  0.96882286  0.33902597  0.68631618     0.03200
C3190       C  0.98175308  0.32333950  0.68612989    -0.32700
H3191       H  0.98265895  0.36868857  0.67525632     0.14200
H3192       H  0.95112729  0.39949984  0.67545880     0.14000
H3193       H  0.88249630  0.38054454  0.69782781     0.13900
H3194       H  0.91402482  0.34973334  0.69762480     0.12900
C3195       C  0.37560277  0.49921423  0.75903071     0.19300
C3196       C  0.40544104  0.49273465  0.75377871    -0.09900
C3197       C  0.40273432  0.49190770  0.74417996    -0.10700
C3198       C  0.37016127  0.49754121  0.73978190     0.20800
C3199       C  0.34033806  0.50400208  0.74503857    -0.12700
C3200       C  0.34304352  0.50482891  0.75463098    -0.11000
C3201       C  0.36737584  0.49684189  0.72989146     0.01800
C3202       C  0.36505716  0.49653687  0.72160802    -0.31000
C3203       C  0.37831391  0.50011672  0.76891590     0.03200
C3204       C  0.38015079  0.50086945  0.77719818    -0.32700
H3205       H  0.43075791  0.48834982  0.75709790     0.14200
H3206       H  0.42600611  0.48690972  0.74019483     0.14000
H3207       H  0.31503565  0.50841944  0.74172319     0.13900
H3208       H  0.31978667  0.50985891  0.75861220     0.12900
C3209       C  0.29965705  0.64368995  0.68804157     0.19300
C3210       C  0.33273693  0.63839108  0.68377272    -0.09900
C3211       C  0.34389954  0.61948444  0.68380946    -0.10700
C3212       C  0.32204533  0.60579810  0.68812508     0.20800
C3213       C  0.28903079  0.61111113  0.69241166    -0.12700
C3214       C  0.27787129  0.63000866  0.69237412    -0.11000
C3215       C  0.33282803  0.58623932  0.68796917     0.01800
C3216       C  0.33988299  0.56961070  0.68772672    -0.31000
C3217       C  0.28829812  0.66316808  0.68801410     0.03200
C3218       C  0.28036170  0.67969952  0.68791886    -0.32700
H3219       H  0.34982826  0.64885790  0.68040862     0.14200
H3220       H  0.36941037  0.61553503  0.68044589     0.14000
H3221       H  0.27185279  0.60063598  0.69574141     0.13900
H3222       H  0.25227756  0.63393887  0.69570272     0.12900
C3223       C  0.64493120  0.49388002  0.68698581     0.19300
C3224       C  0.62931738  0.51050308  0.69047555    -0.09900
C3225       C  0.59146037  0.51370424  0.68961459    -0.10700
C3226       C  0.56913354  0.50031458  0.68523220     0.20800
C3227       C  0.58474387  0.48368943  0.68174909    -0.12700
C3228       C  0.62259627  0.48048838  0.68261010    -0.11000
C3229       C  0.53005709  0.50326135  0.68455069     0.01800
C3230       C  0.49697183  0.50440006  0.68425963    -0.31000
C3231       C  0.68400359  0.49090737  0.68767704     0.03200
C3232       C  0.71708393  0.48979691  0.68804885    -0.32700
H3233       H  0.64641155  0.52098462  0.69383756     0.14200
H3234       H  0.57961805  0.52655449  0.69237508     0.14000
H3235       H  0.56764662  0.47320165  0.67839294     0.13900
H3236       H  0.63443015  0.46763163  0.67985538     0.12900
C3237       C  0.06925880  0.50039836  0.68570270     0.19300
C3238       C  0.09070514  0.49731453  0.67783663    -0.09900
C3239       C  0.12835752  0.49347985  0.67868860    -0.10700
C3240       C  0.14471698  0.49263963  0.68741032     0.20800
C3241       C  0.12323909  0.49565338  0.69528247    -0.12700
C3242       C  0.08557119  0.49948618  0.69443010    -0.11000
C3243       C  0.18385136  0.48973416  0.68820768     0.01800
C3244       C  0.21703798  0.48896062  0.68841165    -0.31000
C3245       C  0.03026026  0.50365907  0.68486904     0.03200
C3246       C  0.99714263  0.50485857  0.68460694    -0.32700
H3247       H  0.07832953  0.49784478  0.67106164     0.14200
H3248       H  0.14475872  0.49130243  0.67255119     0.14000
H3249       H  0.13563495  0.49516809  0.70205594     0.13900
H3250       H  0.06917212  0.50170692  0.70056467     0.12900
C3251       C  0.41885102  0.39285284  0.68599654     0.19300
C3252       C  0.41081686  0.37920459  0.69267091    -0.09900
C3253       C  0.42904436  0.36178228  0.69256545    -0.10700
C3254       C  0.45552031  0.35787003  0.68579969     0.20800
C3255       C  0.46372884  0.37155512  0.67914690    -0.12700
C3256       C  0.44549356  0.38899483  0.67925415    -0.11000
C3257       C  0.47298517  0.33954655  0.68552274     0.01800
C3258       C  0.48478898  0.32359124  0.68535023    -0.31000
C3259       C  0.40033208  0.41091273  0.68613880     0.03200
C3260       C  0.38695051  0.42654331  0.68613766    -0.32700
H3261       H  0.39042271  0.38200825  0.69794079     0.14200
H3262       H  0.42230675  0.35130841  0.69772260     0.14000
H3263       H  0.48399733  0.36870624  0.67385192     0.13900
H3264       H  0.45209507  0.39944385  0.67407367     0.12900
C3265       C  0.82266623  0.64348395  0.56286471     0.19300
C3266       C  0.84920170  0.62912465  0.56303842    -0.09900
C3267       C  0.83822862  0.61018562  0.56295401    -0.10700
C3268       C  0.80068764  0.60551845  0.56269453     0.20800
C3269       C  0.77416529  0.61987058  0.56250221    -0.12700
C3270       C  0.78513406  0.63880351  0.56258643    -0.11000
C3271       C  0.78953392  0.58601316  0.56265577     0.01800
C3272       C  0.78183238  0.56945491  0.56266133    -0.31000
C3273       C  0.83371977  0.66301998  0.56301672     0.03200
C3274       C  0.84113187  0.67962397  0.56317027    -0.32700
H3275       H  0.87828528  0.63256258  0.56325526     0.14200
H3276       H  0.85897918  0.59919351  0.56310500     0.14000
H3277       H  0.74507888  0.61643151  0.56230171     0.13900
H3278       H  0.76436928  0.64978801  0.56245169     0.12900
C3279       C  0.66845999  0.35756913  0.56015747     0.19300
C3280       C  0.70657603  0.35874122  0.56167053    -0.09900
C3281       C  0.72414531  0.37633250  0.56182979    -0.10700
C3282       C  0.70370105  0.39286237  0.56047160     0.20800
C3283       C  0.66563320  0.39168859  0.55888863    -0.12700
C3284       C  0.64805785  0.37409339  0.55873122    -0.11000
C3285       C  0.72140531  0.41106663  0.56089839     0.01800
C3286       C  0.73395202  0.42681869  0.56138143    -0.31000
C3287       C  0.65050385  0.33939776  0.56020740     0.03200
C3288       C  0.63800268  0.32360684  0.56046768    -0.32700
H3289       H  0.72265460  0.34606567  0.56278635     0.14200
H3290       H  0.75355625  0.37704817  0.56307483     0.14000
H3291       H  0.64951783  0.40437788  0.55784437     0.13900
H3292       H  0.61859970  0.37338739  0.55755917     0.12900
C3293       C  0.79842816  0.49405367  0.61558613     0.19300
C3294       C  0.80737097  0.47702533  0.61996354    -0.09900
C3295       C  0.81883939  0.47702892  0.62916787    -0.10700
C3296       C  0.82152812  0.49406857  0.63404230     0.20800
C3297       C  0.81242979  0.51106285  0.62967245    -0.12700
C3298       C  0.80097002  0.51105916  0.62048097    -0.11000
C3299       C  0.83296419  0.49416967  0.64355402     0.01800
C3300       C  0.84098557  0.49454849  0.65161762    -0.31000
C3301       C  0.78762905  0.49421156  0.60602426     0.03200
C3302       C  0.78013487  0.49481675  0.59792961    -0.32700
H3303       H  0.80563254  0.46378183  0.61625669     0.14200
H3304       H  0.82563461  0.46378000  0.63247216     0.14000
H3305       H  0.81423221  0.52431874  0.63336755     0.13900
H3306       H  0.79425115  0.52432205  0.61718050     0.12900
C3307       C  0.31990031  0.64417964  0.56344456     0.19300
C3308       C  0.32617179  0.63269090  0.55575318    -0.09900
C3309       C  0.31563410  0.61369015  0.55589803    -0.10700
C3310       C  0.29871350  0.60607219  0.56372685     0.20800
C3311       C  0.29240203  0.61755796  0.57141794    -0.12700
C3312       C  0.30294197  0.63656691  0.57127288    -0.11000
C3313       C  0.28846301  0.58641928  0.56388692     0.01800
C3314       C  0.28136759  0.56977752  0.56379810    -0.31000
C3315       C  0.33025532  0.66382627  0.56325623     0.03200
C3316       C  0.33759402  0.68044652  0.56314434    -0.32700
H3317       H  0.33914909  0.63841822  0.54965275     0.14200
H3318       H  0.32072851  0.60493739  0.54991707     0.14000
H3319       H  0.27941879  0.61182345  0.57751599     0.13900
H3320       H  0.29784389  0.64532283  0.57725199     0.12900
C3321       C  0.55093746  0.50062623  0.56308206     0.19300
C3322       C  0.53046717  0.49492916  0.57076323    -0.09900
C3323       C  0.49267646  0.49145489  0.56992070    -0.10700
C3324       C  0.47524970  0.49360008  0.56138679     0.20800
C3325       C  0.49574450  0.49923528  0.55370023    -0.12700
C3326       C  0.53353051  0.50270977  0.55454276    -0.11000
C3327       C  0.43608023  0.49093686  0.56062710     0.01800
C3328       C  0.40294461  0.49012465  0.56027794    -0.31000
C3329       C  0.59002039  0.50359437  0.56386674     0.03200
C3330       C  0.62311473  0.50476004  0.56424094    -0.32700
H3331       H  0.54371260  0.49315173  0.57738348     0.14200
H3332       H  0.47702612  0.48721647  0.57592101     0.14000
H3333       H  0.48248781  0.50104907  0.54708378     0.13900
H3334       H  0.54916379  0.50698483  0.54854604     0.12900
C3335       C  0.97539708  0.49376849  0.56155626     0.19300
C3336       C  0.99087692  0.51075655  0.55847324    -0.09900
C3337       C  0.02842695  0.51433636  0.55977685    -0.10700
C3338       C  0.05063123  0.50097416  0.56420563     0.20800
C3339       C  0.03514685  0.48398834  0.56729044    -0.12700
C3340       C  0.99759463  0.48040850  0.56598689    -0.11000
C3341       C  0.08962445  0.50416263  0.56514277     0.01800
C3342       C  0.12276408  0.50531900  0.56531139    -0.31000
C3343       C  0.93643250  0.49055721  0.56058116     0.03200
C3344       C  0.90329915  0.48948589  0.56030342    -0.32700
H3345       H  0.97389423  0.52125014  0.55509880     0.14200
H3346       H  0.04015825  0.52744673  0.55729797     0.14000
H3347       H  0.05213515  0.47348816  0.57065774     0.13900
H3348       H  0.98586559  0.46729197  0.56845847     0.12900
C3349       C  0.20643692  0.39251491  0.56117042     0.19300
C3350       C  0.17668246  0.38892119  0.55527263    -0.09900
C3351       C  0.15897196  0.37137522  0.55545022    -0.10700
C3352       C  0.17087927  0.35734185  0.56154474     0.20800
C3353       C  0.20075181  0.36090700  0.56741272    -0.12700
C3354       C  0.21846161  0.37845587  0.56723578    -0.11000
C3355       C  0.15303167  0.33916589  0.56168409     0.01800
C3356       C  0.14030144  0.32343007  0.56185932    -0.31000
C3357       C  0.22362294  0.41084756  0.56119491     0.03200
C3358       C  0.23542381  0.42676757  0.56122372    -0.32700
H3359       H  0.16704909  0.39971716  0.55057890     0.14200
H3360       H  0.13602271  0.36876626  0.55085687     0.14000
H3361       H  0.21030422  0.35013460  0.57212914     0.13900
H3362       H  0.24132737  0.38109241  0.57185175     0.12900
C3363       C  0.32203901  0.49731275  0.63333200     0.19300
C3364       C  0.34443286  0.48813994  0.62687010    -0.09900
C3365       C  0.33381882  0.48738693  0.61761973    -0.10700
C3366       C  0.30073137  0.49578407  0.61478379     0.20800
C3367       C  0.27836338  0.50496100  0.62124426    -0.12700
C3368       C  0.28897259  0.50571471  0.63048970    -0.11000
C3369       C  0.29005654  0.49525482  0.60523726     0.01800
C3370       C  0.28210522  0.49514097  0.59717765    -0.31000
C3371       C  0.33254455  0.49786217  0.64289423     0.03200
C3372       C  0.33980416  0.49819518  0.65099632    -0.32700
H3373       H  0.37001248  0.48155727  0.62898199     0.14200
H3374       H  0.35139770  0.48029071  0.61268530     0.14000
H3375       H  0.25277993  0.51154426  0.61913459     0.13900
H3376       H  0.27138089  0.51281289  0.63542046     0.12900
C3377       C  0.00527693  0.99852182  0.50885056     0.19300
C3378       C  0.03524668  0.99357130  0.50326598    -0.09900
C3379       C  0.03196773  0.99430805  0.49368138    -0.10700
C3380       C  0.99871336  0.00000128  0.48963585     0.20800
C3381       C  0.96878103  0.00497480  0.49522312    -0.12700
C3382       C  0.97205803  0.00423857  0.50480190    -0.11000
C3383       C  0.99526933  0.00067289  0.47976903     0.01800
C3384       C  0.99263923  0.00110756  0.47149961    -0.31000
C3385       C  0.00845475  0.99776845  0.51872123     0.03200
C3386       C  0.01004096  0.99738140  0.52700760    -0.32700
H3387       H  0.06107387  0.98913946  0.50631511     0.14200
H3388       H  0.05530205  0.99042746  0.48943112     0.14000
H3389       H  0.94293881  0.00939579  0.49217778     0.13900
H3390       H  0.94870626  0.00810898  0.50904876     0.12900
C3391       C  0.49479955  0.00051091  0.49001439     0.19300
C3392       C  0.47606125  0.01394960  0.49532534    -0.09900
C3393       C  0.47849510  0.01346176  0.50492807    -0.10700
C3394       C  0.49968096  0.99953473  0.50927083     0.20800
C3395       C  0.51834681  0.98607049  0.50395710    -0.12700
C3396       C  0.51591268  0.98655837  0.49435557    -0.11000
C3397       C  0.50226739  0.99907107  0.51916168     0.01800
C3398       C  0.50428617  0.99871118  0.52744605    -0.31000
C3399       C  0.49250467  0.00105696  0.48012621     0.03200
C3400       C  0.49090482  0.00137817  0.47184050    -0.32700
H3401       H  0.45964543  0.02479963  0.49204746     0.14200
H3402       H  0.46391849  0.02393850  0.50896060     0.14000
H3403       H  0.53478812  0.97522758  0.50723214     0.13900
H3404       H  0.53051174  0.97609064  0.49032176     0.12900
C3405       C  0.77232974  0.00607209  0.43852535     0.19300
C3406       C  0.75675049  0.98990876  0.44250441    -0.09900
C3407       C  0.71906733  0.98624398  0.44150194    -0.10700
C3408       C  0.69684628  0.99869651  0.43648456     0.20800
C3409       C  0.71241962  0.01487293  0.43252732    -0.12700
C3410       C  0.75007842  0.01853639  0.43353001    -0.11000
C3411       C  0.65787830  0.99532580  0.43563095     0.01800
C3412       C  0.62480521  0.99401640  0.43516126    -0.31000
C3413       C  0.81143136  0.00925693  0.43914113     0.03200
C3414       C  0.84458915  0.01034538  0.43912858    -0.32700
H3415       H  0.77377146  0.98008963  0.44631927     0.14200
H3416       H  0.70728966  0.97374493  0.44463010     0.14000
H3417       H  0.69544415  0.02464704  0.42867249     0.13900
H3418       H  0.76187239  0.03098870  0.43036191     0.12900
C3419       C  0.19649007  0.99992928  0.43707126     0.19300
C3420       C  0.21134139  0.01750847  0.43465456    -0.09900
C3421       C  0.24912020  0.02086931  0.43563568    -0.10700
C3422       C  0.27217356  0.00667788  0.43906706     0.20800
C3423       C  0.25722315  0.98919446  0.44161349    -0.12700
C3424       C  0.21944664  0.98583213  0.44062975    -0.11000
C3425       C  0.31139980  0.00954137  0.43946379     0.01800
C3426       C  0.34457940  0.01030997  0.43930316    -0.31000
C3427       C  0.15765386  0.99653322  0.43598055     0.03200
C3428       C  0.12470337  0.99499141  0.43527935    -0.32700
H3429       H  0.19376911  0.02854608  0.43194462     0.14200
H3430       H  0.26040375  0.03440040  0.43360438     0.14000
H3431       H  0.27484627  0.97808672  0.44423307     0.13900
H3432       H  0.20821644  0.97223128  0.44256796     0.12900
C3433       C  0.87523837  0.99763641  0.25953818     0.19300
C3434       C  0.84049062  0.99735869  0.25534114    -0.09900
C3435       C  0.83763583  0.99780137  0.24575857    -0.10700
C3436       C  0.86952474  0.99852806  0.24034217     0.20800
C3437       C  0.90428017  0.99887447  0.24453650    -0.12700
C3438       C  0.90713612  0.99843203  0.25412220    -0.11000
C3439       C  0.86661761  0.99873380  0.23048876     0.01800
C3440       C  0.86455684  0.99873741  0.22222433    -0.31000
C3441       C  0.87805113  0.99733371  0.26939613     0.03200
C3442       C  0.87973425  0.99749290  0.27766825    -0.32700
H3443       H  0.81565932  0.99680257  0.25947229     0.14200
H3444       H  0.81063693  0.99753705  0.24257835     0.14000
H3445       H  0.92910395  0.99944451  0.24040266     0.13900
H3446       H  0.93413154  0.99871045  0.25730355     0.12900
C3447       C  0.94883005  0.00327344  0.38357367     0.19300
C3448       C  0.97234490  0.99727853  0.37651029    -0.09900
C3449       C  0.96003745  0.99727978  0.36739047    -0.10700
C3450       C  0.92416830  0.00325694  0.36529796     0.20800
C3451       C  0.90065151  0.00920875  0.37236598    -0.12700
C3452       C  0.91295245  0.00920848  0.38148022    -0.11000
C3453       C  0.91175265  0.00346443  0.35589324     0.01800
C3454       C  0.90294723  0.00364253  0.34789640    -0.31000
C3455       C  0.96107227  0.00310679  0.39298959     0.03200
C3456       C  0.96896056  0.00285707  0.40104295    -0.32700
H3457       H  0.00009105  0.99260389  0.37805029     0.14200
H3458       H  0.97847001  0.99265493  0.36197607     0.14000
H3459       H  0.87288860  0.01386504  0.37083200     0.13900
H3460       H  0.89449658  0.01381544  0.38689363     0.12900
C3461       C  0.36961349  0.99942691  0.24009357     0.19300
C3462       C  0.36483087  0.98285393  0.24522455    -0.09900
C3463       C  0.36715186  0.98336049  0.25483919    -0.10700
C3464       C  0.37428298  0.00043945  0.25938686     0.20800
C3465       C  0.37919482  0.01698834  0.25425339    -0.12700
C3466       C  0.37687461  0.01648225  0.24464372    -0.11000
C3467       C  0.37639372  0.00101166  0.26929965     0.01800
C3468       C  0.37801945  0.00146717  0.27759726    -0.31000
C3469       C  0.36703922  0.99898136  0.23018273     0.03200
C3470       C  0.36510255  0.99878277  0.22188438    -0.32700
H3471       H  0.35924734  0.96957055  0.24179929     0.14200
H3472       H  0.36331764  0.97046247  0.25872179     0.14000
H3473       H  0.38473839  0.03027778  0.25767724     0.13900
H3474       H  0.38066992  0.02938815  0.24076564     0.12900
C3475       C  0.67251849  0.99859443  0.31386728     0.19300
C3476       C  0.65679974  0.99911612  0.30506621    -0.09900
C3477       C  0.61926999  0.00305016  0.30401320    -0.10700
C3478       C  0.59735923  0.00655714  0.31175840     0.20800
C3479       C  0.61309723  0.00604984  0.32055693    -0.12700
C3480       C  0.65061795  0.00211463  0.32160970    -0.11000
C3481       C  0.55838496  0.00964525  0.31076797     0.01800
C3482       C  0.52524041  0.01054366  0.31049912    -0.31000
C3483       C  0.71142482  0.99536103  0.31487904     0.03200
C3484       C  0.74451977  0.99419919  0.31519952    -0.32700
H3485       H  0.67357320  0.99654679  0.29902750     0.14200
H3486       H  0.60732863  0.00325867  0.29718560     0.14000
H3487       H  0.59632284  0.00859321  0.32659778     0.13900
H3488       H  0.66254787  0.00187911  0.32843844     0.12900
C3489       C  0.17280191  0.99751229  0.31383130     0.19300
C3490       C  0.15074575  0.99698944  0.32173320    -0.09900
C3491       C  0.11283123  0.00025226  0.32106157    -0.10700
C3492       C  0.09686065  0.00411776  0.31249294     0.20800
C3493       C  0.11885900  0.00446421  0.30458041    -0.12700
C3494       C  0.15676616  0.00119927  0.30525157    -0.11000
C3495       C  0.05779623  0.00723993  0.31181807     0.01800
C3496       C  0.02472462  0.00858837  0.31148969    -0.31000
C3497       C  0.21206118  0.99511539  0.31454012     0.03200
C3498       C  0.24522503  0.99442345  0.31483071    -0.32700
H3499       H  0.16288104  0.99422039  0.32840435     0.14200
H3500       H  0.09600289  0.99981842  0.32721454     0.14000
H3501       H  0.10674552  0.00730556  0.29791388     0.13900
H3502       H  0.17360728  0.00170365  0.29910218     0.12900
C3503       C  0.44727123  0.00244175  0.38393288     0.19300
C3504       C  0.44822930  0.01933151  0.37892905    -0.09900
C3505       C  0.43581872  0.01973511  0.36981835    -0.10700
C3506       C  0.42228775  0.00325816  0.36567518     0.20800
C3507       C  0.42124018  0.98638338  0.37068924    -0.12700
C3508       C  0.43364901  0.98597972  0.37979668    -0.11000
C3509       C  0.41059645  0.00349468  0.35620575     0.01800
C3510       C  0.40262925  0.00329046  0.34815012    -0.31000
C3511       C  0.45933893  0.00209503  0.39337069     0.03200
C3512       C  0.46753478  0.00178851  0.40140988    -0.32700
H3513       H  0.45853411  0.03216584  0.38206831     0.14200
H3514       H  0.43690440  0.03284854  0.36600081     0.14000
H3515       H  0.41097942  0.97354026  0.36754890     0.13900
H3516       H  0.43260387  0.97285812  0.38360905     0.12900
C3517       C  0.62489361  0.24901909  0.50812757     0.19300
C3518       C  0.64682700  0.26216177  0.50344137    -0.09900
C3519       C  0.64928024  0.26158110  0.49383950    -0.10700
C3520       C  0.62983194  0.24784770  0.48887392     0.20800
C3521       C  0.60806328  0.23464305  0.49356162    -0.12700
C3522       C  0.60561015  0.23522346  0.50316215    -0.11000
C3523       C  0.63188410  0.24742761  0.47898038     0.01800
C3524       C  0.63323265  0.24718484  0.47069088    -0.31000
C3525       C  0.62194985  0.24977014  0.51800808     0.03200
C3526       C  0.61945496  0.25041009  0.52628048    -0.32700
H3527       H  0.66188371  0.27288608  0.50720262     0.14200
H3528       H  0.66618932  0.27186715  0.49029099     0.14000
H3529       H  0.59289472  0.22396425  0.48979718     0.13900
H3530       H  0.58858671  0.22498089  0.50670587     0.12900
C3531       C  0.54403223  0.10662489  0.43672268     0.19300
C3532       C  0.54510522  0.11704071  0.42853829    -0.09900
C3533       C  0.56275443  0.13460928  0.42828715    -0.10700
C3534       C  0.57957352  0.14188433  0.43621303     0.20800
C3535       C  0.57849571  0.13148189  0.44440874    -0.12700
C3536       C  0.56083412  0.11389187  0.44465959    -0.11000
C3537       C  0.59687936  0.16024133  0.43596671     0.01800
C3538       C  0.60921633  0.17607814  0.43565575    -0.31000
C3539       C  0.52682948  0.08824021  0.43686756     0.03200
C3540       C  0.51443246  0.07240547  0.43675965    -0.32700
H3541       H  0.53240764  0.11155397  0.42234404     0.14200
H3542       H  0.56322563  0.14253268  0.42192007     0.14000
H3543       H  0.59122964  0.13697331  0.45059709     0.13900
H3544       H  0.56038142  0.10594764  0.45102046     0.12900
C3545       C  0.12041292  0.25113727  0.50834530     0.19300
C3546       C  0.09639435  0.23957168  0.50331032    -0.09900
C3547       C  0.09920443  0.23864097  0.49371615    -0.10700
C3548       C  0.12606817  0.24925859  0.48910362     0.20800
C3549       C  0.14993944  0.26089726  0.49413805    -0.12700
C3550       C  0.14712986  0.26182780  0.50372778    -0.11000
C3551       C  0.12913359  0.24825117  0.47922353     0.01800
C3552       C  0.13149680  0.24763470  0.47094422    -0.31000
C3553       C  0.11800227  0.25186472  0.51823910     0.03200
C3554       C  0.11648860  0.25232601  0.52653062    -0.32700
H3555       H  0.07562733  0.23123582  0.50679856     0.14200
H3556       H  0.08053318  0.22962049  0.48990367     0.14000
H3557       H  0.17076505  0.26920317  0.49065516     0.13900
H3558       H  0.16585881  0.27081734  0.50754022     0.12900
C3559       C  0.85083072  0.24260170  0.43711806     0.19300
C3560       C  0.86965612  0.23702441  0.42915570    -0.09900
C3561       C  0.90735785  0.24064517  0.42827627    -0.10700
C3562       C  0.92635270  0.24993064  0.43533910     0.20800
C3563       C  0.90756625  0.25550365  0.44330958    -0.12700
C3564       C  0.86983475  0.25188429  0.44418888    -0.11000
C3565       C  0.96536455  0.25301585  0.43455546     0.01800
C3566       C  0.99841732  0.25422502  0.43412859    -0.31000
C3567       C  0.81169433  0.23970778  0.43779010     0.03200
C3568       C  0.77853654  0.23878921  0.43784450    -0.32700
H3569       H  0.85515402  0.22998335  0.42361521     0.14200
H3570       H  0.92169509  0.23617902  0.42211005     0.14000
H3571       H  0.92207528  0.26259342  0.44883464     0.13900
H3572       H  0.85546808  0.25640085  0.45034134     0.12900
C3573       C  0.42595272  0.25003244  0.43517932     0.19300
C3574       C  0.40868589  0.23709205  0.42929406    -0.09900
C3575       C  0.37091995  0.23356238  0.43013277    -0.10700
C3576       C  0.35029239  0.24290176  0.43688730     0.20800
C3577       C  0.36751560  0.25590499  0.44274996    -0.12700
C3578       C  0.40529649  0.25943479  0.44191174    -0.11000
C3579       C  0.31119886  0.23982936  0.43752863     0.01800
C3580       C  0.27806078  0.23880704  0.43766890    -0.31000
C3581       C  0.46507716  0.25303878  0.43452670     0.03200
C3582       C  0.49818695  0.25418909  0.43417177    -0.32700
H3583       H  0.42444223  0.22968584  0.42408973     0.14200
H3584       H  0.35780801  0.22361254  0.42550998     0.14000
H3585       H  0.35173398  0.26333379  0.44794200     0.13900
H3586       H  0.41840081  0.26940869  0.44652312     0.12900
C3587       C  0.07853264  0.14225854  0.43617170     0.19300
C3588       C  0.06090265  0.13579856  0.44415301    -0.09900
C3589       C  0.04288497  0.11831336  0.44416399    -0.10700
C3590       C  0.04226827  0.10720412  0.43618554     0.20800
C3591       C  0.05977122  0.11370085  0.42819247    -0.12700
C3592       C  0.07778781  0.13118382  0.42818165    -0.11000
C3593       C  0.02494634  0.08886210  0.43627864     0.01800
C3594       C  0.01280548  0.07298245  0.43627648    -0.31000
C3595       C  0.09635085  0.16047423  0.43610517     0.03200
C3596       C  0.10908496  0.17622634  0.43594594    -0.32700
H3597       H  0.06107531  0.14427324  0.45035754     0.14200
H3598       H  0.02960842  0.11342406  0.45039755     0.14000
H3599       H  0.05964130  0.10521744  0.42199023     0.13900
H3600       H  0.09110410  0.13606151  0.42195067     0.12900
C3601       C  0.74577580  0.25262202  0.23876083     0.19300
C3602       C  0.71783429  0.24214995  0.24303840    -0.09900
C3603       C  0.71535858  0.24167992  0.25264015    -0.10700
C3604       C  0.74080318  0.25168188  0.25801501     0.20800
C3605       C  0.76874454  0.26214939  0.25373904    -0.12700
C3606       C  0.77122015  0.26261971  0.24413769    -0.11000
C3607       C  0.73837464  0.25111670  0.26790129     0.01800
C3608       C  0.73660078  0.25051027  0.27618135    -0.31000
C3609       C  0.74843800  0.25303113  0.22887260     0.03200
C3610       C  0.75057829  0.25318795  0.22058992    -0.32700
H3611       H  0.69802556  0.23434461  0.23895665     0.14200
H3612       H  0.69367220  0.23351667  0.25586815     0.14000
H3613       H  0.78860618  0.26991648  0.25782208     0.13900
H3614       H  0.79296149  0.27074598  0.24091140     0.12900
C3615       C  0.82457527  0.10651552  0.31188941     0.19300
C3616       C  0.80030602  0.11091107  0.30469395    -0.09900
C3617       C  0.78224470  0.12838510  0.30452110    -0.10700
C3618       C  0.78823648  0.14156676  0.31155944     0.20800
C3619       C  0.81237915  0.13713195  0.31877267    -0.12700
C3620       C  0.83043835  0.11966446  0.31894476    -0.11000
C3621       C  0.77078308  0.15988296  0.31125122     0.01800
C3622       C  0.75872817  0.17578405  0.31106593    -0.31000
C3623       C  0.84268643  0.08836524  0.31211446     0.03200
C3624       C  0.85555925  0.07263207  0.31219734    -0.32700
H3625       H  0.79537595  0.10084105  0.29921903     0.14200
H3626       H  0.76379289  0.13164541  0.29888498     0.14000
H3627       H  0.81738728  0.14721674  0.32423634     0.13900
H3628       H  0.84896470  0.11642625  0.32456855     0.12900
C3629       C  0.67335254  0.24672002  0.38263618     0.19300
C3630       C  0.66507458  0.26204611  0.37691208    -0.09900
C3631       C  0.67689851  0.26207459  0.36774937    -0.10700
C3632       C  0.69712762  0.24679881  0.36426840     0.20800
C3633       C  0.70542190  0.23148308  0.36999539    -0.12700
C3634       C  0.69359933  0.23145439  0.37915609    -0.11000
C3635       C  0.70846546  0.24664079  0.35476889     0.01800
C3636       C  0.71616397  0.24646269  0.34669520    -0.31000
C3637       C  0.66200247  0.24683799  0.39213386     0.03200
C3638       C  0.65441725  0.24696984  0.40021358    -0.32700
H3639       H  0.64957755  0.27396430  0.37953252     0.14200
H3640       H  0.67020338  0.27396541  0.36337854     0.14000
H3641       H  0.72092197  0.21956465  0.36737677     0.13900
H3642       H  0.70029914  0.21956343  0.38352632     0.12900
C3643       C  0.24748453  0.24883146  0.23894289     0.19300
C3644       C  0.21984902  0.23827327  0.24328872    -0.09900
C3645       C  0.21701431  0.23830187  0.25288528    -0.10700
C3646       C  0.24178664  0.24889956  0.25818261     0.20800
C3647       C  0.26954696  0.25937670  0.25384067    -0.12700
C3648       C  0.27238158  0.25934842  0.24424421    -0.11000
C3649       C  0.23874058  0.24903272  0.26805761     0.01800
C3650       C  0.23663003  0.24908097  0.27633540    -0.31000
C3651       C  0.24999935  0.24905606  0.22905595     0.03200
C3652       C  0.25173929  0.24941775  0.22077229    -0.32700
H3653       H  0.20044243  0.23009144  0.23926201     0.14200
H3654       H  0.19548468  0.23012207  0.25616762     0.14000
H3655       H  0.28889536  0.26759612  0.25786716     0.13900
H3656       H  0.29385468  0.26756697  0.24096189     0.12900
C3657       C  0.94332600  0.25080644  0.31343595     0.19300
C3658       C  0.96022930  0.25085637  0.30477392    -0.09900
C3659       C  0.99807751  0.24759963  0.30400804    -0.10700
C3660       C  0.01914563  0.24421160  0.31190006     0.20800
C3661       C  0.00228679  0.24422253  0.32057288    -0.12700
C3662       C  0.96439599  0.24747700  0.32133939    -0.11000
C3663       C  0.05822489  0.24137200  0.31112240     0.01800
C3664       C  0.09127619  0.24025592  0.31062885    -0.31000
C3665       C  0.90414720  0.25337341  0.31411191     0.03200
C3666       C  0.87101211  0.25425725  0.31411924    -0.32700
H3667       H  0.94411652  0.25331221  0.29861692     0.14200
H3668       H  0.01090117  0.24773816  0.29727808     0.14000
H3669       H  0.01841411  0.24173370  0.32672379     0.13900
H3670       H  0.95153391  0.24730490  0.32806419     0.12900
C3671       C  0.44337259  0.25101615  0.31314957     0.19300
C3672       C  0.45626018  0.23267508  0.31146920    -0.09900
C3673       C  0.49409865  0.22920878  0.31079417    -0.10700
C3674       C  0.51918821  0.24408466  0.31178856     0.20800
C3675       C  0.50630671  0.26243402  0.31344484    -0.12700
C3676       C  0.46846425  0.26590093  0.31411985    -0.11000
C3677       C  0.55816284  0.24067274  0.31115052     0.01800
C3678       C  0.59123358  0.23939483  0.31078339    -0.31000
C3679       C  0.40437103  0.25442249  0.31374955     0.03200
C3680       C  0.37124804  0.25561260  0.31386998    -0.32700
H3681       H  0.43705047  0.22107196  0.31067590     0.14200
H3682       H  0.50375945  0.21497972  0.30950480     0.14000
H3683       H  0.52551950  0.27404212  0.31421625     0.13900
H3684       H  0.45880175  0.28013709  0.31538770     0.12900
C3685       C  0.29104937  0.14236132  0.31184823     0.19300
C3686       C  0.32871773  0.14107844  0.30974723    -0.09900
C3687       C  0.34661052  0.12356375  0.30995675    -0.10700
C3688       C  0.32693676  0.10721894  0.31227256     0.20800
C3689       C  0.28925845  0.10850441  0.31434326    -0.12700
C3690       C  0.27137644  0.12600876  0.31413397    -0.11000
C3691       C  0.34500641  0.08907040  0.31248193     0.01800
C3692       C  0.35739470  0.07324889  0.31271233    -0.31000
C3693       C  0.27292693  0.16050022  0.31176082     0.03200
C3694       C  0.26018146  0.17625244  0.31165976    -0.32700
H3695       H  0.34425642  0.15362018  0.30797400     0.14200
H3696       H  0.37570867  0.12277574  0.30832471     0.14000
H3697       H  0.27371628  0.09597054  0.31612703     0.13900
H3698       H  0.24228811  0.12679225  0.31577672     0.12900
C3699       C  0.17269925  0.24606613  0.38271798     0.19300
C3700       C  0.20880289  0.25121806  0.38036919    -0.09900
C3701       C  0.21997894  0.25111735  0.37116211    -0.10700
C3702       C  0.19511037  0.24585543  0.36425470     0.20800
C3703       C  0.15900495  0.24068358  0.36659992    -0.12700
C3704       C  0.14782322  0.24078427  0.37581151    -0.11000
C3705       C  0.20643653  0.24590700  0.35476177     0.01800
C3706       C  0.21448969  0.24597117  0.34671403    -0.31000
C3707       C  0.16144046  0.24616987  0.39221790     0.03200
C3708       C  0.15394194  0.24643031  0.40029970    -0.32700
H3709       H  0.22828362  0.25531597  0.38565289     0.14200
H3710       H  0.24793398  0.25516053  0.36943175     0.14000
H3711       H  0.13952300  0.23660793  0.36131241     0.13900
H3712       H  0.11985844  0.23676310  0.37754351     0.12900
C3713       C  0.87243441  0.75058027  0.51010250     0.19300
C3714       C  0.86661135  0.73381507  0.50518619    -0.09900
C3715       C  0.87033079  0.73358114  0.49560423    -0.10700
C3716       C  0.87991938  0.75010476  0.49087660     0.20800
C3717       C  0.88574872  0.76687414  0.49579176    -0.12700
C3718       C  0.88202855  0.76710809  0.50537620    -0.11000
C3719       C  0.88328536  0.74987047  0.48099125     0.01800
C3720       C  0.88522788  0.74952270  0.47270180    -0.31000
C3721       C  0.86884836  0.75079740  0.51998327     0.03200
C3722       C  0.86637193  0.75101250  0.52826500    -0.32700
H3723       H  0.85921566  0.72094176  0.50875582     0.14200
H3724       H  0.86567955  0.72053856  0.49188428     0.14000
H3725       H  0.89310049  0.77975085  0.49221950     0.13900
H3726       H  0.88663442  0.78015427  0.50909656     0.12900
C3727       C  0.94583141  0.89367170  0.43602727     0.19300
C3728       C  0.95987546  0.88119911  0.42941376    -0.09900
C3729       C  0.94892997  0.86224966  0.42941141    -0.10700
C3730       C  0.92383671  0.85568449  0.43600868     0.20800
C3731       C  0.90973757  0.86817293  0.44260623    -0.12700
C3732       C  0.92067973  0.88711571  0.44260857    -0.11000
C3733       C  0.91327814  0.83606808  0.43612993     0.01800
C3734       C  0.90602388  0.81944299  0.43629725    -0.31000
C3735       C  0.95674650  0.91323130  0.43601310     0.03200
C3736       C  0.96434825  0.92981381  0.43605751    -0.32700
H3737       H  0.97925548  0.88611032  0.42427631     0.14200
H3738       H  0.96010911  0.85271447  0.42429277     0.14000
H3739       H  0.89041884  0.86325932  0.44775723     0.13900
H3740       H  0.90955912  0.89664005  0.44774023     0.12900
C3741       C  0.37088942  0.75074859  0.50975831     0.19300
C3742       C  0.38239248  0.76680503  0.50491795    -0.09900
C3743       C  0.38533381  0.76626624  0.49532406    -0.10700
C3744       C  0.37679823  0.74966769  0.49052125     0.20800
C3745       C  0.36528337  0.73361709  0.49536358    -0.12700
C3746       C  0.36234319  0.73415584  0.50495579    -0.11000
C3747       C  0.37962125  0.74913632  0.48063703     0.01800
C3748       C  0.38160614  0.74873551  0.47235383    -0.31000
C3749       C  0.36803244  0.75125582  0.51963932     0.03200
C3750       C  0.36590084  0.75159228  0.52791869    -0.32700
H3751       H  0.38909150  0.77971144  0.50855537     0.14200
H3752       H  0.39422732  0.77877060  0.49165666     0.14000
H3753       H  0.35857122  0.72071104  0.49172779     0.13900
H3754       H  0.35343891  0.72165267  0.50862280     0.12900
C3755       C  0.42521538  0.85530386  0.43662845     0.19300
C3756       C  0.43509472  0.86436807  0.42842851    -0.09900
C3757       C  0.44611991  0.88329310  0.42855940    -0.10700
C3758       C  0.44738680  0.89322054  0.43689417     0.20800
C3759       C  0.43751410  0.88415305  0.44509143    -0.12700
C3760       C  0.42649021  0.86523321  0.44496052    -0.11000
C3761       C  0.45792044  0.91281208  0.43700901     0.01800
C3762       C  0.46519675  0.92942076  0.43704305    -0.31000
C3763       C  0.41465222  0.83571536  0.43653228     0.03200
C3764       C  0.40733081  0.81911124  0.43654211    -0.32700
H3765       H  0.43434107  0.85680690  0.42195084     0.14200
H3766       H  0.45356650  0.89018376  0.42217539     0.14000
H3767       H  0.43826492  0.89171155  0.45156977     0.13900
H3768       H  0.41904269  0.85834612  0.45134528     0.12900
C3769       C  0.67581318  0.75073610  0.43616790     0.19300
C3770       C  0.66027003  0.74551565  0.44461843    -0.09900
C3771       C  0.62252604  0.74173948  0.44525116    -0.10700
C3772       C  0.60020086  0.74310629  0.43742614     0.20800
C3773       C  0.61572599  0.74834726  0.42897865    -0.12700
C3774       C  0.65347410  0.75212340  0.42834568    -0.11000
C3775       C  0.56115385  0.73992992  0.43810516     0.01800
C3776       C  0.52804872  0.73882027  0.43842464    -0.31000
C3777       C  0.71488989  0.75388390  0.43549801     0.03200
C3778       C  0.74802843  0.75498883  0.43534482    -0.32700
H3779       H  0.67735024  0.74429917  0.45070081     0.14200
H3780       H  0.61075948  0.73782246  0.45182789     0.14000
H3781       H  0.59863636  0.74956806  0.42289829     0.13900
H3782       H  0.66523641  0.75604570  0.42176988     0.12900
C3783       C  0.10040973  0.74489129  0.43581923     0.19300
C3784       C  0.12317822  0.73073212  0.43222638    -0.09900
C3785       C  0.16109137  0.73385502  0.43139185    -0.10700
C3786       C  0.17632592  0.75116421  0.43412022     0.20800
C3787       C  0.15350876  0.76537356  0.43763775    -0.12700
C3788       C  0.11561374  0.76225254  0.43847154    -0.11000
C3789       C  0.21554439  0.75392604  0.43374934     0.01800
C3790       C  0.24867057  0.75492698  0.43393973    -0.31000
C3791       C  0.06141788  0.74178250  0.43672997     0.03200
C3792       C  0.02841746  0.74048724  0.43739452    -0.32700
H3793       H  0.11167988  0.71728467  0.43012770     0.14200
H3794       H  0.17855708  0.72272847  0.42871501     0.14000
H3795       H  0.16504473  0.77875778  0.43981888     0.13900
H3796       H  0.09820835  0.77331908  0.44123042     0.12900
C3797       C  0.99846949  0.74993984  0.24074443     0.19300
C3798       C  0.02839158  0.74387309  0.24606535    -0.09900
C3799       C  0.02600157  0.74400938  0.25566790    -0.10700
C3800       C  0.99367973  0.75021548  0.25999541     0.20800
C3801       C  0.96371534  0.75623022  0.25467447    -0.12700
C3802       C  0.96610545  0.75609394  0.24507129    -0.11000
C3803       C  0.99125247  0.75034581  0.26988013     0.01800
C3804       C  0.98941202  0.75023226  0.27816151    -0.31000
C3805       C  0.00104321  0.74997831  0.23086152     0.03200
C3806       C  0.00297555  0.75017829  0.22258156    -0.32700
H3807       H  0.05354477  0.73908273  0.24279544     0.14200
H3808       H  0.04932317  0.73930181  0.25971231     0.14000
H3809       H  0.93857136  0.76103192  0.25794499     0.13900
H3810       H  0.94279301  0.76081289  0.24102672     0.12900
C3811       C  0.91994407  0.89328685  0.31533626     0.19300
C3812       C  0.95525301  0.88819156  0.31835446    -0.09900
C3813       C  0.96603626  0.86922907  0.31833445    -0.10700
C3814       C  0.94157321  0.85525436  0.31528861     0.20800
C3815       C  0.90620565  0.86034404  0.31229783    -0.12700
C3816       C  0.89542038  0.87931289  0.31231729    -0.11000
C3817       C  0.95272021  0.83572393  0.31518344     0.01800
C3818       C  0.96083630  0.81920566  0.31497221    -0.31000
C3819       C  0.90932461  0.91287757  0.31516026     0.03200
C3820       C  0.90214188  0.92949219  0.31486809    -0.32700
H3821       H  0.97449129  0.89888131  0.32067793     0.14200
H3822       H  0.99343609  0.86547815  0.32065802     0.14000
H3823       H  0.88704490  0.84966571  0.30992315     0.13900
H3824       H  0.86809941  0.88308346  0.30994253     0.12900
C3825       C  0.92351235  0.74531279  0.38455641     0.19300
C3826       C  0.89757838  0.74384245  0.37745456    -0.09900
C3827       C  0.90922412  0.74344226  0.36827937    -0.10700
C3828       C  0.94686053  0.74450695  0.36614884     0.20800
C3829       C  0.97281760  0.74588883  0.37325052    -0.12700
C3830       C  0.96116953  0.74628715  0.38242791    -0.11000
C3831       C  0.95858237  0.74445136  0.35667403     0.01800
C3832       C  0.96645741  0.74462676  0.34860903    -0.31000
C3833       C  0.91166457  0.74577042  0.39402256     0.03200
C3834       C  0.90349135  0.74601195  0.40207144    -0.32700
H3835       H  0.86841425  0.74304735  0.37900614     0.14200
H3836       H  0.88888942  0.74237831  0.36284751     0.14000
H3837       H  0.00197474  0.74672957  0.37169560     0.13900
H3838       H  0.98149680  0.74739476  0.38785925     0.12900
C3839       C  0.49692383  0.75085329  0.24019546     0.19300
C3840       C  0.50220538  0.73393110  0.24500222    -0.09900
C3841       C  0.49890621  0.73355638  0.25459037    -0.10700
C3842       C  0.49028044  0.75009753  0.25942854     0.20800
C3843       C  0.48495550  0.76701868  0.25461999    -0.12700
C3844       C  0.48825572  0.76739333  0.24502991    -0.11000
C3845       C  0.48730299  0.74972734  0.26931652     0.01800
C3846       C  0.48548682  0.74934640  0.27760515    -0.31000
C3847       C  0.50020648  0.75122178  0.23031710     0.03200
C3848       C  0.50253677  0.75148639  0.22203810    -0.32700
H3849       H  0.50887928  0.72104876  0.24134280     0.14200
H3850       H  0.50313663  0.72039520  0.25822838     0.14000
H3851       H  0.47832620  0.77990516  0.25828049     0.13900
H3852       H  0.48407225  0.78055730  0.24139060     0.12900
C3853       C  0.44371772  0.85565852  0.31332961     0.19300
C3854       C  0.46969082  0.86992311  0.31492430    -0.09900
C3855       C  0.45895826  0.88888625  0.31470062    -0.10700
C3856       C  0.42219718  0.89369668  0.31288152     0.20800
C3857       C  0.39620133  0.87943197  0.31129054    -0.12700
C3858       C  0.40693880  0.86046049  0.31151435    -0.11000
C3859       C  0.41136525  0.91326492  0.31267348     0.01800
C3860       C  0.40403738  0.92988087  0.31261770    -0.31000
C3861       C  0.45469797  0.83611411  0.31351961     0.03200
C3862       C  0.46247047  0.81955355  0.31356518    -0.32700
H3863       H  0.49818854  0.86639248  0.31633199     0.14200
H3864       H  0.47930264  0.89979198  0.31594392     0.14000
H3865       H  0.36770849  0.88296771  0.30987982     0.13900
H3866       H  0.38660633  0.84954989  0.31026824     0.12900
C3867       C  0.76992752  0.74391727  0.31329982     0.19300
C3868       C  0.74823871  0.74416473  0.30533765    -0.09900
C3869       C  0.71046245  0.74780599  0.30595945    -0.10700
C3870       C  0.69422907  0.75127615  0.31454055     0.20800
C3871       C  0.71590371  0.75103180  0.32250925    -0.12700
C3872       C  0.75371210  0.74739189  0.32188670    -0.11000
C3873       C  0.65511545  0.75428840  0.31514303     0.01800
C3874       C  0.62197743  0.75533372  0.31517620    -0.31000
C3875       C  0.80902002  0.74088302  0.31263056     0.03200
C3876       C  0.84211131  0.73975006  0.31223194    -0.32700
H3877       H  0.76053669  0.74161158  0.29866066     0.14200
H3878       H  0.69389150  0.74784942  0.29976084     0.14000
H3879       H  0.70358410  0.75358366  0.32918352     0.13900
H3880       H  0.77030107  0.74734704  0.32808179     0.12900
C3881       C  0.19415369  0.75167066  0.31569060     0.19300
C3882       C  0.20846725  0.74162475  0.30819141    -0.09900
C3883       C  0.24629705  0.73817629  0.30757987    -0.10700
C3884       C  0.26997584  0.74472075  0.31447834     0.20800
C3885       C  0.25570420  0.75479326  0.32198109    -0.12700
C3886       C  0.21782051  0.75824262  0.32259481    -0.11000
C3887       C  0.30900313  0.74163021  0.31371959     0.01800
C3888       C  0.34200107  0.74030710  0.31310728    -0.31000
C3889       C  0.15506752  0.75470800  0.31633092     0.03200
C3890       C  0.12192100  0.75563633  0.31632688    -0.32700
H3891       H  0.19036242  0.73642880  0.30283018     0.14200
H3892       H  0.25707635  0.73046818  0.30172968     0.14000
H3893       H  0.27384871  0.76000492  0.32732967     0.13900
H3894       H  0.20701382  0.76596972  0.32843505     0.12900
C3895       C  0.42651823  0.74723926  0.38430301     0.19300
C3896       C  0.40760079  0.73630569  0.37780171    -0.09900
C3897       C  0.41905602  0.73620306  0.36861125    -0.10700
C3898       C  0.44951805  0.74700770  0.36587258     0.20800
C3899       C  0.46849691  0.75790161  0.37237759    -0.12700
C3900       C  0.45704101  0.75800367  0.38156930    -0.11000
C3901       C  0.46075901  0.74712814  0.35636558     0.01800
C3902       C  0.46831775  0.74712054  0.34828319    -0.31000
C3903       C  0.41502156  0.74723985  0.39379223     0.03200
C3904       C  0.40685317  0.74714185  0.40183829    -0.32700
H3905       H  0.38404436  0.72788221  0.37983354     0.14200
H3906       H  0.40412007  0.72774864  0.36364018     0.14000
H3907       H  0.49203498  0.76633499  0.37034316     0.13900
H3908       H  0.47195804  0.76646781  0.38653948     0.12900
C3909       C  0.75135223  0.49955282  0.50901526     0.19300
C3910       C  0.75631892  0.51661902  0.50430330    -0.09900
C3911       C  0.75398774  0.51711722  0.49469855    -0.10700
C3912       C  0.74666332  0.50055292  0.48974848     0.20800
C3913       C  0.74145327  0.48350704  0.49445985    -0.12700
C3914       C  0.74378500  0.48300840  0.50406600    -0.11000
C3915       C  0.74471005  0.50102536  0.47985075     0.01800
C3916       C  0.74311470  0.50136900  0.47156289    -0.31000
C3917       C  0.75416023  0.49901942  0.51890722     0.03200
C3918       C  0.75637917  0.49865007  0.52719194    -0.32700
H3919       H  0.76211228  0.52950965  0.50804879     0.14200
H3920       H  0.75801653  0.53038407  0.49113563     0.14000
H3921       H  0.73572538  0.47061267  0.49071018     0.13900
H3922       H  0.73982122  0.46973437  0.50762639     0.12900
C3923       C  0.67488247  0.35557013  0.43621337     0.19300
C3924       C  0.69506165  0.36316973  0.42887412    -0.09900
C3925       C  0.70590019  0.38212810  0.42904483    -0.10700
C3926       C  0.69668343  0.39357558  0.43656464     0.20800
C3927       C  0.67643749  0.38598774  0.44389319    -0.12700
C3928       C  0.66559907  0.36703034  0.44372252    -0.11000
C3929       C  0.70732352  0.41317211  0.43669011     0.01800
C3930       C  0.71473996  0.42977601  0.43673234    -0.31000
C3931       C  0.66442765  0.33594311  0.43611395     0.03200
C3932       C  0.65717801  0.31931798  0.43601011    -0.32700
H3933       H  0.70247955  0.35443682  0.42304095     0.14200
H3934       H  0.72141632  0.38785238  0.42332273     0.14000
H3935       H  0.66902658  0.39472027  0.44972687     0.13900
H3936       H  0.65008912  0.36130667  0.44944540     0.12900
C3937       C  0.82999231  0.64194639  0.43704426     0.19300
C3938       C  0.81662309  0.63457502  0.42873901    -0.09900
C3939       C  0.79867111  0.61708070  0.42859358    -0.10700
C3940       C  0.79386103  0.60686740  0.43675592     0.20800
C3941       C  0.80727202  0.61421991  0.44506211    -0.12700
C3942       C  0.82522661  0.63172012  0.44520781    -0.11000
C3943       C  0.77632979  0.58858990  0.43655952     0.01800
C3944       C  0.76384365  0.57279255  0.43634375    -0.31000
C3945       C  0.84730135  0.66028795  0.43722762     0.03200
C3946       C  0.85947680  0.67615747  0.43738654    -0.32700
H3947       H  0.81995142  0.64237820  0.42238954     0.14200
H3948       H  0.78861871  0.61150848  0.42212107     0.14000
H3949       H  0.80391393  0.60641795  0.45141130     0.13900
H3950       H  0.83525340  0.63730048  0.45168097     0.12900
C3951       C  0.24980175  0.50208666  0.50873614     0.19300
C3952       C  0.27565078  0.49228605  0.50339755    -0.09900
C3953       C  0.27290813  0.49240418  0.49380184    -0.10700
C3954       C  0.24429798  0.50232083  0.48949906     0.20800
C3955       C  0.21841178  0.51209395  0.49483842    -0.12700
C3956       C  0.22115449  0.51197546  0.50443523    -0.11000
C3957       C  0.24163907  0.50253301  0.47961876     0.01800
C3958       C  0.23986130  0.50265784  0.47133658    -0.31000
C3959       C  0.25256014  0.50190309  0.51861332     0.03200
C3960       C  0.25469787  0.50154088  0.52688728    -0.32700
H3961       H  0.29788123  0.48456933  0.50664926     0.14200
H3962       H  0.29307748  0.48479458  0.48974339     0.14000
H3963       H  0.19617671  0.51980532  0.49158646     0.13900
H3964       H  0.20098150  0.51957886  0.50849493     0.12900
C3965       C  0.17539991  0.35543125  0.43655565     0.19300
C3966       C  0.19042836  0.36381489  0.42867521    -0.09900
C3967       C  0.20167483  0.38270327  0.42887863    -0.10700
C3968       C  0.19802575  0.39330428  0.43696776     0.20800
C3969       C  0.18299916  0.38492032  0.44485213    -0.12700
C3970       C  0.17174979  0.36602258  0.44464871    -0.11000
C3971       C  0.20873406  0.41289522  0.43709070     0.01800
C3972       C  0.21607538  0.42951086  0.43702291    -0.31000
C3973       C  0.16458481  0.33586644  0.43638176     0.03200
C3974       C  0.15715470  0.31927129  0.43619962    -0.32700
H3975       H  0.19350042  0.35574943  0.42238811     0.14200
H3976       H  0.21310620  0.38904912  0.42273012     0.14000
H3977       H  0.17989720  0.39299381  0.45113529     0.13900
H3978       H  0.16028446  0.35967317  0.45079242     0.12900
C3979       C  0.94638108  0.49851626  0.43583959     0.19300
C3980       C  0.96170221  0.50143544  0.44457661    -0.09900
C3981       C  0.99944159  0.50501780  0.44549791    -0.10700
C3982       C  0.02194684  0.50576101  0.43767914     0.20800
C3983       C  0.00664110  0.50271821  0.42895365    -0.12700
C3984       C  0.96893481  0.49913565  0.42803329    -0.11000
C3985       C  0.06095516  0.50891099  0.43856173     0.01800
C3986       C  0.09409648  0.50998790  0.43871699    -0.31000
C3987       C  0.90731844  0.49571740  0.43487393     0.03200
C3988       C  0.87423800  0.49468442  0.43436795    -0.32700
H3989       H  0.94445005  0.50105950  0.45065699     0.14200
H3990       H  0.01103982  0.50719612  0.45228202     0.14000
H3991       H  0.02386508  0.50310881  0.42286834     0.13900
H3992       H  0.95734855  0.49697335  0.42124613     0.12900
C3993       C  0.44659335  0.50075627  0.43654932     0.19300
C3994       C  0.47073311  0.49571807  0.42944786    -0.09900
C3995       C  0.50847224  0.49929717  0.43030875    -0.10700
C3996       C  0.52228589  0.50796896  0.43826309     0.20800
C3997       C  0.49814597  0.51309655  0.44535568    -0.12700
C3998       C  0.46035787  0.50951973  0.44449205    -0.11000
C3999       C  0.56138361  0.51084861  0.43919643     0.01800
C4000       C  0.59458440  0.51145477  0.43936252    -0.31000
C4001       C  0.40764896  0.49732588  0.43562533     0.03200
C4002       C  0.37465974  0.49560874  0.43505089    -0.32700
H4003       H  0.46040353  0.48901697  0.42326311     0.14200
H4004       H  0.52692370  0.49519640  0.42479752     0.14000
H4005       H  0.50852762  0.51973121  0.45155143     0.13900
H4006       H  0.44189742  0.51355494  0.45001180     0.12900
C4007       C  0.32788578  0.64226119  0.43559054     0.19300
C4008       C  0.28942082  0.64088104  0.43629294    -0.09900
C4009       C  0.27226562  0.62317757  0.43618102    -0.10700
C4010       C  0.29346478  0.60673890  0.43536610     0.20800
C4011       C  0.33192343  0.60812273  0.43461599    -0.12700
C4012       C  0.34908232  0.62582987  0.43472874    -0.11000
C4013       C  0.27598649  0.58843905  0.43538572     0.01800
C4014       C  0.26340964  0.57265113  0.43541568    -0.31000
C4015       C  0.34538781  0.66054159  0.43584509     0.03200
C4016       C  0.35790494  0.67632289  0.43618116    -0.32700
H4017       H  0.27272160  0.65348205  0.43696330     0.14200
H4018       H  0.24254225  0.62230795  0.43676608     0.14000
H4019       H  0.34863229  0.59551742  0.43398238     0.13900
H4020       H  0.37881792  0.62670015  0.43418126     0.12900
C4021       C  0.61761627  0.49982161  0.23992141     0.19300
C4022       C  0.60537308  0.51559567  0.24487696    -0.09900
C4023       C  0.60791628  0.51587129  0.25448008    -0.10700
C4024       C  0.62272345  0.50037545  0.25918821     0.20800
C4025       C  0.63512074  0.48462726  0.25423178    -0.12700
C4026       C  0.63257773  0.48435178  0.24462481    -0.11000
C4027       C  0.62490637  0.50059908  0.26909029     0.01800
C4028       C  0.62641649  0.50085130  0.27738381    -0.31000
C4029       C  0.61482667  0.49952826  0.23002938     0.03200
C4030       C  0.61269094  0.49934402  0.22174420    -0.32700
H4031       H  0.59380714  0.52765020  0.24132183     0.14200
H4032       H  0.59825450  0.52812912  0.25823111     0.14000
H4033       H  0.64663577  0.47256365  0.25779005     0.13900
H4034       H  0.64218886  0.47208530  0.24087227     0.12900
C4035       C  0.67162633  0.39342805  0.31245665     0.19300
C4036       C  0.70270511  0.38783866  0.31749357    -0.09900
C4037       C  0.71390419  0.36893337  0.31745906    -0.10700
C4038       C  0.69409022  0.35552394  0.31237828     0.20800
C4039       C  0.66302475  0.36112296  0.30734040    -0.12700
C4040       C  0.65182871  0.38002235  0.30737521    -0.11000
C4041       C  0.70516168  0.33598476  0.31241115     0.01800
C4042       C  0.71262363  0.31938301  0.31235337    -0.31000
C4043       C  0.66047549  0.41294639  0.31241235     0.03200
C4044       C  0.65277336  0.42951265  0.31240735    -0.32700
H4045       H  0.71828006  0.39809092  0.32143325     0.14200
H4046       H  0.73791627  0.36477802  0.32139292     0.14000
H4047       H  0.64744426  0.35087642  0.30339901     0.13900
H4048       H  0.62781736  0.38417662  0.30344043     0.12900
C4049       C  0.53978432  0.64214324  0.31290693     0.19300
C4050       C  0.51877515  0.62583939  0.31138705    -0.09900
C4051       C  0.53582658  0.60811329  0.31122219    -0.10700
C4052       C  0.57399327  0.60658065  0.31256597     0.20800
C4053       C  0.59500473  0.62288441  0.31407675    -0.12700
C4054       C  0.57795596  0.64060805  0.31424155    -0.11000
C4055       C  0.59129896  0.58824878  0.31251502     0.01800
C4056       C  0.60366685  0.57242645  0.31259301    -0.31000
C4057       C  0.52249291  0.66048329  0.31300017     0.03200
C4058       C  0.51035989  0.67635792  0.31297799    -0.32700
H4059       H  0.48928047  0.62682747  0.31032798     0.14200
H4060       H  0.51926247  0.59560828  0.31006359     0.14000
H4061       H  0.62449753  0.62189611  0.31514038     0.13900
H4062       H  0.59452300  0.65311010  0.31540469     0.12900
C4063       C  0.67174120  0.50264786  0.36535108     0.19300
C4064       C  0.64576840  0.50114885  0.37244112    -0.09900
C4065       C  0.65733344  0.50098659  0.38161872    -0.10700
C4066       C  0.69492724  0.50231851  0.38375193     0.20800
C4067       C  0.72091133  0.50379226  0.37666369    -0.12700
C4068       C  0.70934534  0.50395421  0.36748504    -0.11000
C4069       C  0.70666348  0.50220202  0.39321134     0.01800
C4070       C  0.71485756  0.50205099  0.40124821    -0.31000
C4071       C  0.65997933  0.50268345  0.35588901     0.03200
C4072       C  0.65174278  0.50248332  0.34785162    -0.32700
H4073       H  0.61664566  0.50009203  0.37087645     0.14200
H4074       H  0.63699529  0.49982781  0.38704562     0.14000
H4075       H  0.75003813  0.50481678  0.37822992     0.13900
H4076       H  0.72968953  0.50508017  0.36205818     0.12900
C4077       C  0.11297120  0.50158783  0.24010264     0.19300
C4078       C  0.08128558  0.50321453  0.24555491    -0.09900
C4079       C  0.08430378  0.50346119  0.25514585    -0.10700
C4080       C  0.11901809  0.50208299  0.25931874     0.20800
C4081       C  0.15069773  0.50053527  0.25386109    -0.12700
C4082       C  0.14768069  0.50028865  0.24427523    -0.11000
C4083       C  0.12213471  0.50211155  0.26918709     0.01800
C4084       C  0.12466596  0.50202781  0.27745503    -0.31000
C4085       C  0.10995199  0.50107496  0.23024041     0.03200
C4086       C  0.10818513  0.50047144  0.22196882    -0.32700
H4087       H  0.05431126  0.50422294  0.24239838     0.14200
H4088       H  0.05962275  0.50466084  0.25930031     0.14000
H4089       H  0.17766930  0.49945849  0.25701339     0.13900
H4090       H  0.17235660  0.49902056  0.24012291     0.12900
C4091       C  0.19117301  0.35546340  0.31302977     0.19300
C4092       C  0.17439687  0.36306447  0.30517745    -0.09900
C4093       C  0.16293806  0.38192608  0.30510469    -0.10700
C4094       C  0.16811708  0.39328243  0.31289171     0.20800
C4095       C  0.18466860  0.38565395  0.32076535    -0.12700
C4096       C  0.19613017  0.36679038  0.32083810    -0.11000
C4097       C  0.15752849  0.41288248  0.31272480     0.01800
C4098       C  0.15045410  0.42952222  0.31263586    -0.31000
C4099       C  0.20287844  0.33601277  0.31307960     0.03200
C4100       C  0.21119208  0.31951384  0.31294738    -0.32700
H4101       H  0.17028749  0.35443217  0.29910983     0.14200
H4102       H  0.15027274  0.38767476  0.29896924     0.14000
H4103       H  0.18891164  0.39431266  0.32681855     0.13900
H4104       H  0.20893397  0.36106585  0.32696036     0.12900
C4105       C  0.84532934  0.50735736  0.31058670     0.19300
C4106       C  0.86056695  0.49050793  0.30725600    -0.09900
C4107       C  0.89827882  0.48701344  0.30822953    -0.10700
C4108       C  0.92089350  0.50033215  0.31256765     0.20800
C4109       C  0.90572060  0.51724576  0.31584648    -0.12700
C4110       C  0.86798317  0.52073975  0.31487520    -0.11000
C4111       C  0.95977219  0.49689418  0.31348374     0.01800
C4112       C  0.99275192  0.49525699  0.31400162    -0.31000
C4113       C  0.80618303  0.51031687  0.31002962     0.03200
C4114       C  0.77300135  0.51097977  0.31000395    -0.32700
H4115       H  0.84323170  0.48000649  0.30398631     0.14200
H4116       H  0.90975909  0.47393657  0.30563190     0.14000
H4117       H  0.92303097  0.52768220  0.31917358     0.13900
H4118       H  0.85644687  0.53375288  0.31753243     0.12900
C4119       C  0.42098563  0.49838997  0.31272966     0.19300
C4120       C  0.40762287  0.50947440  0.30547489    -0.09900
C4121       C  0.36979141  0.51283478  0.30461204    -0.10700
C4122       C  0.34519147  0.50514155  0.31101237     0.20800
C4123       C  0.35854417  0.49398566  0.31824038    -0.12700
C4124       C  0.39635818  0.49062707  0.31910292    -0.11000
C4125       C  0.30618782  0.50832375  0.31015164     0.01800
C4126       C  0.27305103  0.50940911  0.30997989    -0.31000
C4127       C  0.46002428  0.49547573  0.31373148     0.03200
C4128       C  0.49309722  0.49433118  0.31427531    -0.32700
H4129       H  0.42646148  0.51558369  0.30051908     0.14200
H4130       H  0.35976046  0.52141618  0.29898034     0.14000
H4131       H  0.33971927  0.48790663  0.32320930     0.13900
H4132       H  0.40638040  0.48207782  0.32474772     0.12900
C4133       C  0.07527987  0.60672606  0.31226366     0.19300
C4134       C  0.03925096  0.60846325  0.30887307    -0.09900
C4135       C  0.02157515  0.62602880  0.30892947    -0.10700
C4136       C  0.03981689  0.64195269  0.31239407     0.20800
C4137       C  0.07591219  0.64022298  0.31574073    -0.12700
C4138       C  0.09358041  0.62266313  0.31568495    -0.11000
C4139       C  0.02192992  0.66013606  0.31245864     0.01800
C4140       C  0.00968647  0.67598416  0.31254972    -0.31000
C4141       C  0.09292761  0.58849797  0.31241046     0.03200
C4142       C  0.10525359  0.57268125  0.31259997    -0.32700
H4143       H  0.02478566  0.59622834  0.30622802     0.14200
H4144       H  0.99373441  0.62717953  0.30629618     0.14000
H4145       H  0.09035413  0.65244280  0.31840947     0.13900
H4146       H  0.12138498  0.62150333  0.31834209     0.12900
C4147       C  0.19459304  0.50351835  0.38363462     0.19300
C4148       C  0.16666647  0.49125800  0.38068804    -0.09900
C4149       C  0.15460430  0.49170424  0.37156026    -0.10700
C4150       C  0.17034783  0.50444154  0.36533406     0.20800
C4151       C  0.19810046  0.51681505  0.36829135    -0.12700
C4152       C  0.21017335  0.51636963  0.37742953    -0.11000
C4153       C  0.15892890  0.50433675  0.35585415     0.01800
C4154       C  0.15091116  0.50373182  0.34781267    -0.31000
C4155       C  0.20691692  0.50291870  0.39303845     0.03200
C4156       C  0.21543371  0.50218279  0.40104419    -0.32700
H4157       H  0.15434550  0.48130651  0.38543504     0.14200
H4158       H  0.13323110  0.48203387  0.36934303     0.14000
H4159       H  0.21056112  0.52668190  0.36352545     0.13900
H4160       H  0.23170013  0.52595580  0.37964065     0.12900
loop_ 
_geom_bond_atom_site_label_1 
_geom_bond_atom_site_label_2 
_geom_bond_distance 
_geom_bond_site_symmetry_2 
_ccdc_geom_bond_type 
Zn1           O5   1.965       .  S
Zn1           O6   2.017       .  S
Zn1          O10   2.028       .  S
Zn1          O17   2.016       .  S
Zn2           O5   1.960       .  S
Zn2           O7   2.025       .  S
Zn2           O9   2.010       .  S
Zn2          O13   2.007       .  S
Zn3           O5   1.950       .  S
Zn3           O8   2.009       .  S
Zn3          O11   2.008       .  S
Zn3          O14   1.995       .  S
Zn4           O5   1.972       .  S
Zn4          O12   2.034       .  S
Zn4          O15   2.031       .  S
Zn4          O16   2.021       .  S
O6           C18   1.272       .  A
O7           C19   1.272       .  A
O8           C20   1.271       .  A
O9           C18   1.271       .  A
O10          C20   1.273       .  A
O11          C19   1.270       .  A
O12          C21   1.274       .  A
O13          C22   1.271       .  A
O14          C21   1.269       .  A
O15          C22   1.273       .  A
O16          C23   1.272       .  A
O17          C23   1.272       .  A
C18        C4112   1.432   1_455  S
C19        C4154   1.435       .  S
C20        C4098   1.436       .  S
C21        C4126   1.433       .  S
C22        C4142   1.436       .  S
C23        C4084   1.435       .  S
Zn24         O28   1.963       .  S
Zn24         O29   2.031       .  S
Zn24         O33   2.015       .  S
Zn24         O40   2.011       .  S
Zn25         O28   1.951       .  S
Zn25         O30   2.008       .  S
Zn25         O32   2.007       .  S
Zn25         O36   1.996       .  S
Zn26         O28   1.966       .  S
Zn26         O31   2.018       .  S
Zn26         O34   2.029       .  S
Zn26         O37   2.021       .  S
Zn27         O28   1.972       .  S
Zn27         O35   2.024       .  S
Zn27         O38   2.033       .  S
Zn27         O39   2.033       .  S
O29          C41   1.273       .  A
O30          C42   1.271       .  A
O31          C43   1.272       .  A
O32          C41   1.270       .  A
O33          C43   1.272       .  A
O34          C42   1.273       .  A
O35          C44   1.273       .  A
O36          C45   1.270       .  A
O37          C44   1.272       .  A
O38          C45   1.274       .  A
O39          C46   1.274       .  A
O40          C46   1.271       .  A
C41        C4072   1.436       .  S
C42        C4044   1.436       .  S
C43        C4128   1.434       .  S
C44        C4028   1.438       .  S
C45        C4114   1.433       .  S
C46        C4056   1.438       .  S
Zn47         O51   1.961       .  S
Zn47         O52   2.013       .  S
Zn47         O56   2.007       .  S
Zn47         O63   2.024       .  S
Zn48         O51   1.964       .  S
Zn48         O53   2.015       .  S
Zn48         O55   2.022       .  S
Zn48         O59   2.030       .  S
Zn49         O51   1.973       .  S
Zn49         O54   2.037       .  S
Zn49         O57   2.023       .  S
Zn49         O60   2.036       .  S
Zn50         O51   1.951       .  S
Zn50         O58   1.994       .  S
Zn50         O61   2.010       .  S
Zn50         O62   2.009       .  S
O52          C64   1.272       .  A
O53          C65   1.272       .  A
O54          C66   1.274       .  A
O55          C64   1.273       .  A
O56          C66   1.270       .  A
O57          C65   1.273       .  A
O58          C67   1.269       .  A
O59          C68   1.273       .  A
O60          C67   1.274       .  A
O61          C68   1.271       .  A
O62          C69   1.271       .  A
O63          C69   1.273       .  A
C64        C4002   1.435       .  S
C65        C3958   1.435       .  S
C66        C4014   1.438       .  S
C67        C3986   1.433       .  S
C68        C3972   1.437       .  S
C69        C4156   1.435       .  S
Zn70         O74   1.963       .  S
Zn70         O75   2.028       .  S
Zn70         O79   2.014       .  S
Zn70         O86   2.012       .  S
Zn71         O74   1.951       .  S
Zn71         O76   2.008       .  S
Zn71         O78   2.007       .  S
Zn71         O82   1.997       .  S
Zn72         O74   1.965       .  S
Zn72         O77   2.014       .  S
Zn72         O80   2.029       .  S
Zn72         O83   2.018       .  S
Zn73         O74   1.971       .  S
Zn73         O81   2.022       .  S
Zn73         O84   2.035       .  S
Zn73         O85   2.032       .  S
O75          C87   1.273       .  A
O76          C88   1.270       .  A
O77          C89   1.272       .  A
O78          C87   1.270       .  A
O79          C89   1.272       .  A
O80          C88   1.273       .  A
O81          C90   1.272       .  A
O82          C91   1.270       .  A
O83          C90   1.272       .  A
O84          C91   1.274       .  A
O85          C92   1.274       .  A
O86          C92   1.271       .  A
C87        C4070   1.435       .  S
C88        C3930   1.436       .  S
C89        C3988   1.433       .  S
C90        C3916   1.437       .  S
C91        C4000   1.434       .  S
C92        C3944   1.438       .  S
Zn93         O97   1.953       .  S
Zn93         O98   2.009       .  S
Zn93        O102   2.000       .  S
Zn93        O109   2.020       .  S
Zn94         O97   1.968       .  S
Zn94         O99   2.013       .  S
Zn94        O101   2.035       .  S
Zn94        O105   2.021       .  S
Zn95         O97   1.973       .  S
Zn95        O100   2.028       .  S
Zn95        O103   2.027       .  S
Zn95        O106   2.030       .  S
Zn96         O97   1.958       .  S
Zn96        O104   2.010       .  S
Zn96        O107   2.003       .  S
Zn96        O108   2.024       .  S
O98         C110   1.271       .  A
O99         C111   1.271       .  A
O100        C112   1.274       .  A
O101        C110   1.274       .  A
O102        C112   1.270       .  A
O103        C111   1.273       .  A
O104        C113   1.271       .  A
O105        C114   1.273       .  A
O106        C113   1.273       .  A
O107        C114   1.271       .  A
O108        C115   1.272       .  A
O109        C115   1.272       .  A
C110       C4058   1.438       .  S
C111       C3902   1.437       .  S
C112       C3874   1.433       .  S
C113       C3862   1.436       .  S
C114       C3888   1.432       .  S
C115       C3846   1.438       .  S
Zn116       O120   1.969       .  S
Zn116       O121   2.022       .  S
Zn116       O125   2.016       .  S
Zn116       O132   2.036       .  S
Zn117       O120   1.959       .  S
Zn117       O122   2.012       .  S
Zn117       O124   2.006       .  S
Zn117       O128   2.021       .  S
Zn118       O120   1.973   1_455  S
Zn118       O123   2.027   1_455  S
Zn118       O126   2.032   1_455  S
Zn118       O129   2.030       .  S
Zn119       O120   1.953   1_455  S
Zn119       O127   1.998       .  S
Zn119       O130   2.014       .  S
Zn119       O131   2.007       .  S
O121        C133   1.273       .  A
O122        C134   1.271       .  A
O123        C135   1.273       .  A
O124        C133   1.271       .  A
O125        C135   1.272       .  A
O126        C134   1.273       .  A
O127        C136   1.270       .  A
O128        C137   1.272       .  A
O129        C136   1.274       .  A
O130        C137   1.271   1_455  A
O131        C138   1.270   1_455  A
O132        C138   1.274       .  A
C133       C3876   1.433       .  S
C134       C3818   1.437       .  S
C135       C3832   1.437       .  S
C136       C3890   1.432       .  S
C137       C3804   1.435       .  S
C138       C4140   1.438   1_655  S
Zn139       O143   1.953       .  S
Zn139       O144   2.020       .  S
Zn139       O148   2.008       .  S
Zn139       O155   1.999       .  S
Zn140       O143   1.957       .  S
Zn140       O145   2.004       .  S
Zn140       O147   2.021       .  S
Zn140       O151   2.011       .  S
Zn141       O143   1.966       .  S
Zn141       O146   2.033       .  S
Zn141       O149   2.023       .  S
Zn141       O152   2.014       .  S
Zn142       O143   1.971       .  S
Zn142       O150   2.027       .  S
Zn142       O153   2.025       .  S
Zn142       O154   2.027       .  S
O144        C156   1.272       .  A
O145        C157   1.271       .  A
O146        C158   1.274       .  A
O147        C156   1.272       .  A
O148        C158   1.271       .  A
O149        C157   1.273       .  A
O150        C159   1.273       .  A
O151        C160   1.271       .  A
O152        C159   1.271       .  A
O153        C160   1.273       .  A
O154        C161   1.273       .  A
O155        C161   1.270       .  A
C156       C3748   1.437       .  S
C157       C3776   1.432       .  S
C158       C4016   1.437       .  S
C159       C3904   1.437       .  S
C160       C3764   1.435       .  S
C161       C3790   1.432       .  S
Zn162       O166   1.968       .  S
Zn162       O167   2.036       .  S
Zn162       O171   2.022       .  S
Zn162       O178   2.013       .  S
Zn163       O166   1.954       .  S
Zn163       O168   2.019       .  S
Zn163       O170   2.011       .  S
Zn163       O174   2.000       .  S
Zn164       O166   1.959       .  S
Zn164       O169   2.007       .  S
Zn164       O172   2.025       .  S
Zn164       O175   2.012       .  S
Zn165       O166   1.973       .  S
Zn165       O173   2.030       .  S
Zn165       O176   2.032       .  S
Zn165       O177   2.031       .  S
O167        C179   1.274       .  A
O168        C180   1.272       .  A
O169        C181   1.271       .  A
O170        C179   1.271       .  A
O171        C181   1.273       .  A
O172        C180   1.272       .  A
O173        C182   1.273       .  A
O174        C183   1.270       .  A
O175        C182   1.271       .  A
O176        C183   1.274       .  A
O177        C184   1.273       .  A
O178        C184   1.271       .  A
C179       C3946   1.438       .  S
C180       C3720   1.438       .  S
C181       C3792   1.433   1_655  S
C182       C3734   1.437       .  S
C183       C3778   1.433       .  S
C184       C3834   1.438       .  S
Zn185       O189   1.968       .  S
Zn185       O190   2.019       .  S
Zn185       O194   2.011       .  S
Zn185       O201   2.038       .  S
Zn186       O189   1.958       .  S
Zn186       O191   2.012       .  S
Zn186       O193   2.004       .  S
Zn186       O197   2.023       .  S
Zn187       O189   1.973       .  S
Zn187       O192   2.027       .  S
Zn187       O195   2.033       .  S
Zn187       O198   2.034       .  S
Zn188       O189   1.951       .  S
Zn188       O196   1.996       .  S
Zn188       O199   2.012       .  S
Zn188       O200   2.007       .  S
O190        C202   1.272       .  A
O191        C203   1.271       .  A
O192        C204   1.273       .  A
O193        C202   1.271       .  A
O194        C204   1.271       .  A
O195        C203   1.273       .  A
O196        C205   1.270       .  A
O197        C206   1.272       .  A
O198        C205   1.274       .  A
O199        C206   1.271       .  A
O200        C207   1.270       .  A
O201        C207   1.274       .  A
C202       C3664   1.431       .  S
C203       C4100   1.438       .  S
C204       C3706   1.435       .  S
C205       C3680   1.433       .  S
C206       C3650   1.435       .  S
C207       C3694   1.439       .  S
Zn208       O212   1.958       .  S
Zn208       O213   2.004       .  S
Zn208       O217   2.020       .  S
Zn208       O224   2.012       .  S
Zn209       O212   1.968       .  S
Zn209       O214   2.038       .  S
Zn209       O216   2.024       .  S
Zn209       O220   2.017       .  S
Zn210       O212   1.954       .  S
Zn210       O215   2.017       .  S
Zn210       O218   2.013       .  S
Zn210       O221   1.999       .  S
Zn211       O212   1.972       .  S
Zn211       O219   2.025       .  S
Zn211       O222   2.025       .  S
Zn211       O223   2.030       .  S
O213        C225   1.271       .  A
O214        C226   1.274       .  A
O215        C227   1.272       .  A
O216        C225   1.273       .  A
O217        C227   1.272       .  A
O218        C226   1.271       .  A
O219        C228   1.273       .  A
O220        C229   1.272       .  A
O221        C228   1.270       .  A
O222        C229   1.273       .  A
O223        C230   1.273       .  A
O224        C230   1.271       .  A
C225       C3678   1.432       .  S
C226       C3622   1.440       .  S
C227       C3608   1.436       .  S
C228       C3666   1.431       .  S
C229       C3636   1.437       .  S
C230       C4042   1.437       .  S
Zn231       O235   1.951       .  S
Zn231       O236   1.993       .  S
Zn231       O240   2.010       .  S
Zn231       O247   2.010       .  S
Zn232       O235   1.973       .  S
Zn232       O237   2.030       .  S
Zn232       O239   2.035       .  S
Zn232       O243   2.037       .  S
Zn233       O235   1.964       .  S
Zn233       O238   2.025       .  S
Zn233       O241   2.017       .  S
Zn233       O244   2.013       .  S
Zn234       O235   1.961       .  S
Zn234       O242   2.008       .  S
Zn234       O245   2.008       .  S
Zn234       O246   2.027       .  S
O236        C248   1.270       .  A
O237        C249   1.273       .  A
O238        C250   1.272       .  A
O239        C248   1.274       .  A
O240        C250   1.271       .  A
O241        C249   1.272       .  A
O242        C251   1.271       .  A
O243        C252   1.274       .  A
O244        C251   1.272       .  A
O245        C252   1.271       .  A
O246        C253   1.272       .  A
O247        C253   1.270       .  A
C248       C3580   1.432       .  S
C249       C3552   1.438       .  S
C250       C3974   1.436       .  S
C251       C3566   1.431   1_455  S
C252       C3596   1.438       .  S
C253       C3708   1.436       .  S
Zn254       O258   1.966       .  S
Zn254       O259   2.029       .  S
Zn254       O263   2.017       .  S
Zn254       O270   2.019       .  S
Zn255       O258   1.952       .  S
Zn255       O260   1.997       .  S
Zn255       O262   2.010       .  S
Zn255       O266   2.009       .  S
Zn256       O258   1.972       .  S
Zn256       O261   2.021       .  S
Zn256       O264   2.033       .  S
Zn256       O267   2.034       .  S
Zn257       O258   1.963       .  S
Zn257       O265   2.016       .  S
Zn257       O268   2.030       .  S
Zn257       O269   2.013       .  S
O259        C271   1.273       .  A
O260        C272   1.270       .  A
O261        C273   1.272       .  A
O262        C271   1.270       .  A
O263        C273   1.272       .  A
O264        C272   1.274       .  A
O265        C274   1.272       .  A
O266        C275   1.271       .  A
O267        C274   1.274       .  A
O268        C275   1.273       .  A
O269        C276   1.272       .  A
O270        C276   1.272       .  A
C271       C3932   1.436       .  S
C272       C3568   1.433       .  S
C273       C3524   1.436       .  S
C274       C3538   1.439       .  S
C275       C3638   1.436       .  S
C276       C3582   1.434       .  S
Zn277       O281   1.974       .  S
Zn277       O282   2.028       .  S
Zn277       O286   2.035       .  S
Zn277       O293   2.036       .  S
Zn278       O281   1.967   1_565  S
Zn278       O283   2.030       .  S
Zn278       O285   2.022       .  S
Zn278       O289   2.019       .  S
Zn279       O281   1.953   1_565  S
Zn279       O284   1.995       .  S
Zn279       O287   2.011       .  S
Zn279       O290   2.009       .  S
Zn280       O281   1.964       .  S
Zn280       O288   2.030       .  S
Zn280       O291   2.014       .  S
Zn280       O292   2.013       .  S
O282        C294   1.273       .  A
O283        C295   1.273       .  A
O284        C296   1.270   1_565  A
O285        C294   1.272   1_565  A
O286        C296   1.274       .  A
O287        C295   1.271       .  A
O288        C297   1.273       .  A
O289        C298   1.273       .  A
O290        C297   1.270   1_565  A
O291        C298   1.272   1_545  A
O292        C299   1.271       .  A
O293        C299   1.274       .  A
C294       C3468   1.439       .  S
C295       C3860   1.437       .  S
C296       C3482   1.433       .  S
C297       C3510   1.436       .  S
C298       C3498   1.433       .  S
C299       C3692   1.439       .  S
Zn300       O304   1.950       .  S
Zn300       O305   1.995       .  S
Zn300       O309   2.011       .  S
Zn300       O316   2.007       .  S
Zn301       O304   1.971   1_565  S
Zn301       O306   2.027       .  S
Zn301       O308   2.031       .  S
Zn301       O312   2.023       .  S
Zn302       O304   1.957   1_565  S
Zn302       O307   2.016       .  S
Zn302       O310   2.009       .  S
Zn302       O313   2.001       .  S
Zn303       O304   1.967       .  S
Zn303       O311   2.027       .  S
Zn303       O314   2.015       .  S
Zn303       O315   2.041       .  S
O305        C317   1.270   1_545  A
O306        C318   1.273       .  A
O307        C319   1.271       .  A
O308        C317   1.274       .  A
O309        C319   1.271   1_545  A
O310        C318   1.271       .  A
O311        C320   1.274       .  A
O312        C321   1.273   1_565  A
O313        C320   1.270   1_565  A
O314        C321   1.272       .  A
O315        C322   1.275       .  A
O316        C322   1.270       .  A
C317       C3484   1.432       .  S
C318       C3820   1.436       .  S
C319       C3442   1.433       .  S
C320       C3496   1.433   1_655  S
C321       C3454   1.435       .  S
C322       C3624   1.439       .  S
Zn323       O327   1.962       .  S
Zn323       O328   2.015       .  S
Zn323       O332   2.015       .  S
Zn323       O339   2.031       .  S
Zn324       O327   1.966   1_565  S
Zn324       O329   2.017       .  S
Zn324       O331   2.018       .  S
Zn324       O335   2.026       .  S
Zn325       O327   1.972       .  S
Zn325       O330   2.034       .  S
Zn325       O333   2.021       .  S
Zn325       O336   2.033       .  S
Zn326       O327   1.953   1_565  S
Zn326       O334   2.000       .  S
Zn326       O337   2.007       .  S
Zn326       O338   2.007       .  S
O328        C340   1.272   1_545  A
O329        C341   1.272   1_565  A
O330        C342   1.274       .  A
O331        C340   1.272       .  A
O332        C342   1.272       .  A
O333        C341   1.272       .  A
O334        C343   1.270   1_565  A
O335        C344   1.273       .  A
O336        C343   1.274       .  A
O337        C344   1.270       .  A
O338        C345   1.270   1_565  A
O339        C345   1.273       .  A
C340       C3412   1.434       .  S
C341       C3400   1.436       .  S
C342       C3540   1.439       .  S
C343       C3426   1.434       .  S
C344       C3762   1.435       .  S
C345       C3512   1.436       .  S
Zn346       O350   1.951   1_565  S
Zn346       O351   2.006       .  S
Zn346       O355   1.996       .  S
Zn346       O362   2.008       .  S
Zn347       O350   1.962   1_455  S
Zn347       O352   2.009       .  S
Zn347       O354   2.027       .  S
Zn347       O358   2.011       .  S
Zn348       O350   1.974       .  S
Zn348       O353   2.037       .  S
Zn348       O356   2.037       .  S
Zn348       O359   2.025       .  S
Zn349       O350   1.965   1_465  S
Zn349       O357   2.016       .  S
Zn349       O360   2.017       .  S
Zn349       O361   2.028   1_455  S
O351        C363   1.270   1_565  A
O352        C364   1.271       .  A
O353        C365   1.274       .  A
O354        C363   1.273   1_455  A
O355        C365   1.270   1_565  A
O356        C364   1.274   1_655  A
O357        C366   1.272   1_465  A
O358        C367   1.271   1_545  A
O359        C366   1.273       .  A
O360        C367   1.272       .  A
O361        C368   1.273       .  A
O362        C368   1.270       .  A
C363       C3456   1.435       .  S
C364       C3594   1.438       .  S
C365       C3414   1.434       .  S
C366       C3384   1.436       .  S
C367       C3428   1.433       .  S
C368       C3736   1.436       .  S
Zn369       O373   1.958       .  S
Zn369       O374   2.021       .  S
Zn369       O378   2.009       .  S
Zn369       O385   2.011       .  S
Zn370       O373   1.952       .  S
Zn370       O375   2.005       .  S
Zn370       O377   2.013       .  S
Zn370       O381   1.997       .  S
Zn371       O373   1.967       .  S
Zn371       O376   2.019       .  S
Zn371       O379   2.029       .  S
Zn371       O382   2.015       .  S
Zn372       O373   1.972       .  S
Zn372       O380   2.026       .  S
Zn372       O383   2.035       .  S
Zn372       O384   2.029       .  S
O374        C386   1.272       .  A
O375        C387   1.270       .  A
O376        C388   1.272       .  A
O377        C386   1.271       .  A
O378        C388   1.271       .  A
O379        C387   1.273       .  A
O380        C389   1.273       .  A
O381        C390   1.270       .  A
O382        C389   1.272       .  A
O383        C390   1.274       .  A
O384        C391   1.273       .  A
O385        C391   1.271       .  A
C386       C3960   1.435       .  S
C387       C3358   1.435       .  S
C388       C3328   1.433       .  S
C389       C3370   1.437       .  S
C390       C3342   1.434       .  S
C391       C3314   1.436       .  S
Zn392       O396   1.952       .  S
Zn392       O397   2.007       .  S
Zn392       O401   1.995       .  S
Zn392       O408   2.016       .  S
Zn393       O396   1.967       .  S
Zn393       O398   2.021       .  S
Zn393       O400   2.025       .  S
Zn393       O404   2.018       .  S
Zn394       O396   1.974       .  S
Zn394       O399   2.035       .  S
Zn394       O402   2.027       .  S
Zn394       O405   2.030       .  S
Zn395       O396   1.962       .  S
Zn395       O403   2.010       .  S
Zn395       O406   2.013       .  S
Zn395       O407   2.035       .  S
O397        C409   1.271       .  A
O398        C410   1.272       .  A
O399        C411   1.274       .  A
O400        C409   1.273       .  A
O401        C411   1.270       .  A
O402        C410   1.273       .  A
O403        C412   1.271       .  A
O404        C413   1.272       .  A
O405        C412   1.274       .  A
O406        C413   1.272       .  A
O407        C414   1.273       .  A
O408        C414   1.271       .  A
C409       C3272   1.435       .  S
C410       C3918   1.438       .  S
C411       C3344   1.433       .  S
C412       C3286   1.437       .  S
C413       C3330   1.433       .  S
C414       C3302   1.440       .  S
Zn415       O419   1.954       .  S
Zn415       O420   2.011       .  S
Zn415       O424   1.999       .  S
Zn415       O431   2.016       .  S
Zn416       O419   1.966       .  S
Zn416       O421   2.016       .  S
Zn416       O423   2.024       .  S
Zn416       O427   2.013       .  S
Zn417       O419   1.975       .  S
Zn417       O422   2.038       .  S
Zn417       O425   2.030       .  S
Zn417       O428   2.042       .  S
Zn418       O419   1.961       .  S
Zn418       O426   2.010       .  S
Zn418       O429   2.010       .  S
Zn418       O430   2.029       .  S
O420        C432   1.271       .  A
O421        C433   1.272       .  A
O422        C434   1.275       .  A
O423        C432   1.272       .  A
O424        C434   1.270       .  A
O425        C433   1.273       .  A
O426        C435   1.271       .  A
O427        C436   1.272       .  A
O428        C435   1.275       .  A
O429        C436   1.271       .  A
O430        C437   1.273       .  A
O431        C437   1.271       .  A
C432       C3216   1.435       .  S
C433       C3202   1.438       .  S
C434       C3244   1.434       .  S
C435       C3260   1.440       .  S
C436       C3230   1.431       .  S
C437       C3372   1.438       .  S
Zn438       O442   1.954       .  S
Zn438       O443   2.019       .  S
Zn438       O447   1.995       .  S
Zn438       O454   2.009       .  S
Zn439       O442   1.958       .  S
Zn439       O444   2.008       .  S
Zn439       O446   2.023       .  S
Zn439       O450   2.005       .  S
Zn440       O442   1.974       .  S
Zn440       O445   2.036       .  S
Zn440       O448   2.032       .  S
Zn440       O451   2.036       .  S
Zn441       O442   1.967       .  S
Zn441       O449   2.013       .  S
Zn441       O452   2.020       .  S
Zn441       O453   2.028       .  S
O443        C455   1.272       .  A
O444        C456   1.271       .  A
O445        C457   1.275       .  A
O446        C455   1.272       .  A
O447        C457   1.270       .  A
O448        C456   1.274       .  A
O449        C458   1.271       .  A
O450        C459   1.271       .  A
O451        C458   1.274       .  A
O452        C459   1.272       .  A
O453        C460   1.273       .  A
O454        C460   1.271       .  A
C455       C3162   1.438       .  S
C456       C3174   1.437       .  S
C457       C3246   1.433       .  S
C458       C3300   1.439       .  S
C459       C3232   1.432       .  S
C460       C3188   1.436       .  S
Zn461       O465   1.961   1_655  S
Zn461       O466   2.030       .  S
Zn461       O470   2.006       .  S
Zn461       O477   2.011       .  S
Zn462       O465   1.951       .  S
Zn462       O467   1.997       .  S
Zn462       O469   2.016       .  S
Zn462       O473   2.015       .  S
Zn463       O465   1.973       .  S
Zn463       O468   2.031       .  S
Zn463       O471   2.030       .  S
Zn463       O474   2.021       .  S
Zn464       O465   1.964   1_655  S
Zn464       O472   2.014       .  S
Zn464       O475   2.029       .  S
Zn464       O476   2.014       .  S
O466        C478   1.273   1_655  A
O467        C479   1.270       .  A
O468        C480   1.273   1_455  A
O469        C478   1.271       .  A
O470        C480   1.270       .  A
O471        C479   1.274       .  A
O472        C481   1.271   1_655  A
O473        C482   1.271       .  A
O474        C481   1.272       .  A
O475        C482   1.273   1_655  A
O476        C483   1.272       .  A
O477        C483   1.272       .  A
C478       C3148   1.439       .  S
C479       C3132   1.432       .  S
C480       C3190   1.436       .  S
C481       C3090   1.435       .  S
C482       C3104   1.438       .  S
C483       C3118   1.432       .  S
Zn484       O488   1.968       .  S
Zn484       O489   2.033       .  S
Zn484       O493   2.018       .  S
Zn484       O500   2.024       .  S
Zn485       O488   1.955       .  S
Zn485       O490   2.015       .  S
Zn485       O492   2.014       .  S
Zn485       O496   2.001       .  S
Zn486       O488   1.964       .  S
Zn486       O491   2.014       .  S
Zn486       O494   2.032       .  S
Zn486       O497   2.016       .  S
Zn487       O488   1.972       .  S
Zn487       O495   2.036       .  S
Zn487       O498   2.025       .  S
Zn487       O499   2.022       .  S
O489        C501   1.273       .  A
O490        C502   1.271       .  A
O491        C503   1.272       .  A
O492        C501   1.271       .  A
O493        C503   1.273       .  A
O494        C502   1.273       .  A
O495        C504   1.274       .  A
O496        C505   1.271       .  A
O497        C504   1.271       .  A
O498        C505   1.273       .  A
O499        C506   1.272       .  A
O500        C506   1.273       .  A
C501       C3062   1.438       .  S
C502       C3076   1.439       .  S
C503       C3134   1.433       .  S
C504       C3258   1.440       .  S
C505       C3120   1.432       .  S
C506       C3048   1.438       .  S
Zn507       O511   1.962       .  S
Zn507       O512   2.016       .  S
Zn507       O516   2.033       .  S
Zn507       O523   2.011       .  S
Zn508       O511   1.967       .  S
Zn508       O513   2.031       .  S
Zn508       O515   2.021       .  S
Zn508       O519   2.020       .  S
Zn509       O511   1.953       .  S
Zn509       O514   2.016       .  S
Zn509       O517   2.013       .  S
Zn509       O520   1.998       .  S
Zn510       O511   1.974       .  S
Zn510       O518   2.030       .  S
Zn510       O521   2.023       .  S
Zn510       O522   2.030       .  S
O512        C524   1.272       .  A
O513        C525   1.273       .  A
O514        C526   1.271       .  A
O515        C524   1.273       .  A
O516        C526   1.274       .  A
O517        C525   1.271       .  A
O518        C527   1.273       .  A
O519        C528   1.272       .  A
O520        C527   1.270       .  A
O521        C528   1.272       .  A
O522        C529   1.273       .  A
O523        C529   1.271       .  A
C524       C3034   1.435       .  S
C525       C3008   1.438       .  S
C526       C3146   1.439       .  S
C527       C3020   1.433   1_455  S
C528       C3554   1.438       .  S
C529       C3356   1.436       .  S
Zn530       O534   1.953       .  S
Zn530       O535   2.000       .  S
Zn530       O539   2.012       .  S
Zn530       O546   2.014       .  S
Zn531       O534   1.974       .  S
Zn531       O536   2.034       .  S
Zn531       O538   2.035       .  S
Zn531       O542   2.027       .  S
Zn532       O534   1.963       .  S
Zn532       O537   2.030       .  S
Zn532       O540   2.011       .  S
Zn532       O543   2.013       .  S
Zn533       O534   1.967       .  S
Zn533       O541   2.017       .  S
Zn533       O544   2.017       .  S
Zn533       O545   2.030       .  S
O535        C547   1.270       .  A
O536        C548   1.274       .  A
O537        C549   1.273       .  A
O538        C547   1.274       .  A
O539        C549   1.271       .  A
O540        C548   1.271       .  A
O541        C550   1.272       .  A
O542        C551   1.273       .  A
O543        C550   1.272       .  A
O544        C551   1.272       .  A
O545        C552   1.273       .  A
O546        C552   1.271       .  A
C547       C3036   1.435       .  S
C548       C3288   1.438       .  S
C549       C3078   1.438       .  S
C550       C3022   1.433       .  S
C551       C3526   1.437       .  S
C552       C2992   1.438       .  S
Zn553       O557   1.962   1_655  S
Zn553       O558   2.031       .  S
Zn553       O562   2.017       .  S
Zn553       O569   2.011       .  S
Zn554       O557   1.952   1_545  S
Zn554       O559   1.998       .  S
Zn554       O561   2.010       .  S
Zn554       O565   2.014       .  S
Zn555       O557   1.973       .  S
Zn555       O560   2.037       .  S
Zn555       O563   2.034       .  S
Zn555       O566   2.024       .  S
Zn556       O557   1.965   1_645  S
Zn556       O564   2.017       .  S
Zn556       O567   2.031       .  S
Zn556       O568   2.020       .  S
O558        C570   1.273   1_655  A
O559        C571   1.270   1_545  A
O560        C572   1.274   1_455  A
O561        C570   1.271   1_545  A
O562        C572   1.272       .  A
O563        C571   1.274       .  A
O564        C573   1.272   1_645  A
O565        C574   1.271       .  A
O566        C573   1.273       .  A
O567        C574   1.273   1_655  A
O568        C575   1.273       .  A
O569        C575   1.272   1_565  A
C570       C2980   1.437       .  S
C571       C2952   1.433       .  S
C572       C2964   1.441       .  S
C573       C3386   1.436       .  S
C574       C3006   1.438       .  S
C575       C2936   1.433       .  S
Zn576       O580   1.974       .  S
Zn576       O581   2.034       .  S
Zn576       O585   2.030       .  S
Zn576       O592   2.024       .  S
Zn577       O580   1.963       .  S
Zn577       O582   2.035       .  S
Zn577       O584   2.013       .  S
Zn577       O588   2.013       .  S
Zn578       O580   1.953   1_545  S
Zn578       O583   1.997       .  S
Zn578       O586   2.017       .  S
Zn578       O589   2.013       .  S
Zn579       O580   1.967   1_545  S
Zn579       O587   2.030       .  S
Zn579       O590   2.019       .  S
Zn579       O591   2.021       .  S
O581        C593   1.274       .  A
O582        C594   1.274       .  A
O583        C595   1.270   1_545  A
O584        C593   1.271       .  A
O585        C595   1.274       .  A
O586        C594   1.271   1_545  A
O587        C596   1.273       .  A
O588        C597   1.272   1_565  A
O589        C596   1.271       .  A
O590        C597   1.273       .  A
O591        C598   1.272   1_545  A
O592        C598   1.272       .  A
C593       C2910   1.438       .  S
C594       C2922   1.440       .  S
C595       C2938   1.432       .  S
C596       C2994   1.438       .  S
C597       C2950   1.434       .  S
C598       C3398   1.437       .  S
Zn599       O603   1.970       .  S
Zn599       O604   2.018       .  S
Zn599       O608   2.029       .  S
Zn599       O615   2.043       .  S
Zn600       O603   1.972   1_545  S
Zn600       O605   2.033       .  S
Zn600       O607   2.024       .  S
Zn600       O611   2.031       .  S
Zn601       O603   1.957   1_545  S
Zn601       O606   2.005       .  S
Zn601       O609   2.013       .  S
Zn601       O612   2.018       .  S
Zn602       O603   1.953       .  S
Zn602       O610   2.014       .  S
Zn602       O613   1.999       .  S
Zn602       O614   2.009       .  S
O604        C616   1.272       .  A
O605        C617   1.273       .  A
O606        C618   1.271   1_545  A
O607        C616   1.273   1_545  A
O608        C618   1.274       .  A
O609        C617   1.271       .  A
O610        C619   1.271       .  A
O611        C620   1.274       .  A
O612        C619   1.272   1_545  A
O613        C620   1.270   1_565  A
O614        C621   1.270       .  A
O615        C621   1.275       .  A
C616       C2978   1.437       .  S
C617       C3106   1.438       .  S
C618       C2866   1.435   1_455  S
C619       C2852   1.434       .  S
C620       C2880   1.433       .  S
C621       C2894   1.440       .  S
Zn622       O626   1.975   1_545  S
Zn622       O627   2.036       .  S
Zn622       O631   2.034       .  S
Zn622       O638   2.035       .  S
Zn623       O626   1.962   1_545  S
Zn623       O628   2.005       .  S
Zn623       O630   2.013       .  S
Zn623       O634   2.023       .  S
Zn624       O626   1.971       .  S
Zn624       O629   2.019       .  S
Zn624       O632   2.024       .  S
Zn624       O635   2.038       .  S
Zn625       O626   1.957       .  S
Zn625       O633   2.013       .  S
Zn625       O636   2.025       .  S
Zn625       O637   2.003       .  S
O627        C639   1.274       .  A
O628        C640   1.271   1_545  A
O629        C641   1.272       .  A
O630        C639   1.271       .  A
O631        C641   1.274   1_545  A
O632        C640   1.273       .  A
O633        C642   1.271       .  A
O634        C643   1.272   1_545  A
O635        C642   1.274       .  A
O636        C643   1.272       .  A
O637        C644   1.271   1_565  A
O638        C644   1.275       .  A
C639       C3064   1.439       .  S
C640       C2882   1.433       .  S
C641       C2924   1.440       .  S
C642       C2838   1.440       .  S
C643       C2824   1.439       .  S
C644       C2868   1.435       .  S
Zn645       O649   1.953       .  S
Zn645       O650   2.012       .  S
Zn645       O654   1.998       .  S
Zn645       O661   2.011       .  S
Zn646       O649   1.967       .  S
Zn646       O651   2.019       .  S
Zn646       O653   2.031       .  S
Zn646       O657   2.022       .  S
Zn647       O649   1.973       .  S
Zn647       O652   2.033       .  S
Zn647       O655   2.021       .  S
Zn647       O658   2.031       .  S
Zn648       O649   1.963       .  S
Zn648       O656   2.017       .  S
Zn648       O659   2.014       .  S
Zn648       O660   2.033       .  S
O650        C662   1.271       .  A
O651        C663   1.272       .  A
O652        C664   1.274       .  A
O653        C662   1.273       .  A
O654        C664   1.270       .  A
O655        C663   1.272       .  A
O656        C665   1.272       .  A
O657        C666   1.273       .  A
O658        C665   1.273       .  A
O659        C666   1.272       .  A
O660        C667   1.274       .  A
O661        C667   1.271       .  A
C662       C3316   1.437       .  S
C663       C3750   1.436       .  S
C664       C2796   1.433       .  S
C665       C2908   1.439       .  S
C666       C2784   1.435       .  S
C667       C2810   1.437       .  S
Zn668       O672   1.953       .  S
Zn668       O673   2.012       .  S
Zn668       O677   1.997       .  S
Zn668       O684   2.008       .  S
Zn669       O672   1.967       .  S
Zn669       O674   2.020       .  S
Zn669       O676   2.029       .  S
Zn669       O680   2.020       .  S
Zn670       O672   1.974       .  S
Zn670       O675   2.038       .  S
Zn670       O678   2.027       .  S
Zn670       O681   2.039       .  S
Zn671       O672   1.963       .  S
Zn671       O679   2.014       .  S
Zn671       O682   2.012       .  S
Zn671       O683   2.027       .  S
O673        C685   1.271       .  A
O674        C686   1.272       .  A
O675        C687   1.275       .  A
O676        C685   1.273       .  A
O677        C687   1.270       .  A
O678        C686   1.273       .  A
O679        C688   1.271       .  A
O680        C689   1.273       .  A
O681        C688   1.274       .  A
O682        C689   1.272       .  A
O683        C690   1.273       .  A
O684        C690   1.270       .  A
C685       C3274   1.437       .  S
C686       C3722   1.438       .  S
C687       C2782   1.435       .  S
C688       C2966   1.440       .  S
C689       C2798   1.434       .  S
C690       C2768   1.435       .  S
Zn691       O695   1.952       .  S
Zn691       O696   1.993       .  S
Zn691       O700   2.008       .  S
Zn691       O707   2.006       .  S
Zn692       O695   1.975       .  S
Zn692       O697   2.040       .  S
Zn692       O699   2.036       .  S
Zn692       O703   2.029       .  S
Zn693       O695   1.962       .  S
Zn693       O698   2.029       .  S
Zn693       O701   2.010       .  S
Zn693       O704   2.013       .  S
Zn694       O695   1.966       .  S
Zn694       O702   2.018       .  S
Zn694       O705   2.017       .  S
Zn694       O706   2.029       .  S
O696        C708   1.269       .  A
O697        C709   1.275       .  A
O698        C710   1.273       .  A
O699        C708   1.274       .  A
O700        C710   1.270       .  A
O701        C709   1.271       .  A
O702        C711   1.272       .  A
O703        C712   1.273       .  A
O704        C711   1.272       .  A
O705        C712   1.272       .  A
O706        C713   1.273       .  A
O707        C713   1.270       .  A
C708       C2740   1.433       .  S
C709       C2896   1.439       .  S
C710       C2812   1.436       .  S
C711       C2754   1.433       .  S
C712       C2726   1.438       .  S
C713       C3218   1.435       .  S
Zn714       O718   1.972       .  S
Zn714       O719   2.034       .  S
Zn714       O723   2.027       .  S
Zn714       O730   2.024       .  S
Zn715       O718   1.950       .  S
Zn715       O720   2.011       .  S
Zn715       O722   1.991       .  S
Zn715       O726   2.005       .  S
Zn716       O718   1.958       .  S
Zn716       O721   2.014       .  S
Zn716       O724   2.021       .  S
Zn716       O727   2.008       .  S
Zn717       O718   1.967       .  S
Zn717       O725   2.024       .  S
Zn717       O728   2.039       .  S
Zn717       O729   2.013       .  S
O719        C731   1.274       .  A
O720        C732   1.271       .  A
O721        C733   1.271       .  A
O722        C731   1.269       .  A
O723        C733   1.273       .  A
O724        C732   1.272       .  A
O725        C734   1.273       .  A
O726        C735   1.270       .  A
O727        C734   1.271       .  A
O728        C735   1.274       .  A
O729        C736   1.271       .  A
O730        C736   1.273       .  A
C731       C2742   1.432       .  S
C732       C2712   1.434       .  S
C733       C3176   1.437       .  S
C734       C2756   1.434       .  S
C735       C2840   1.439       .  S
C736       C2770   1.435       .  S
Zn737       O741   1.953       .  S
Zn737       O742   2.007       .  S
Zn737       O746   1.997       .  S
Zn737       O753   2.016       .  S
Zn738       O741   1.968       .  S
Zn738       O743   2.013       .  S
Zn738       O745   2.034       .  S
Zn738       O749   2.021       .  S
Zn739       O741   1.974       .  S
Zn739       O744   2.036       .  S
Zn739       O747   2.029       .  S
Zn739       O750   2.031       .  S
Zn740       O741   1.958       .  S
Zn740       O748   2.011       .  S
Zn740       O751   2.007       .  S
Zn740       O752   2.018       .  S
O742        C754   1.270       .  A
O743        C755   1.272       .  A
O744        C756   1.274       .  A
O745        C754   1.274       .  A
O746        C756   1.270       .  A
O747        C755   1.273       .  A
O748        C757   1.271       .  A
O749        C758   1.272       .  A
O750        C757   1.273       .  A
O751        C758   1.271       .  A
O752        C759   1.272       .  A
O753        C759   1.271       .  A
C754       C2684   1.437       .  S
C755       C2700   1.437       .  S
C756       C2656   1.433       .  S
C757       C2644   1.437       .  S
C758       C2672   1.433       .  S
C759       C2628   1.435       .  S
Zn760       O764   1.950       .  S
Zn760       O765   2.003       .  S
Zn760       O769   1.989       .  S
Zn760       O776   2.008       .  S
Zn761       O764   1.961   1_455  S
Zn761       O766   2.012       .  S
Zn761       O768   2.029       .  S
Zn761       O772   2.011       .  S
Zn762       O764   1.974       .  S
Zn762       O767   2.035       .  S
Zn762       O770   2.038       .  S
Zn762       O773   2.025       .  S
Zn763       O764   1.966   1_455  S
Zn763       O771   2.016       .  S
Zn763       O774   2.019       .  S
Zn763       O775   2.033   1_455  S
O765        C777   1.270       .  A
O766        C778   1.271       .  A
O767        C779   1.274       .  A
O768        C777   1.273   1_455  A
O769        C779   1.269       .  A
O770        C778   1.274   1_655  A
O771        C780   1.272   1_455  A
O772        C781   1.272       .  A
O773        C780   1.273       .  A
O774        C781   1.273       .  A
O775        C782   1.273       .  A
O776        C782   1.270       .  A
C777       C2614   1.435       .  S
C778       C2600   1.439       .  S
C779       C2658   1.432       .  S
C780       C2572   1.436       .  S
C781       C2670   1.433       .  S
C782       C2588   1.437       .  S
Zn783       O787   1.959       .  S
Zn783       O788   2.021       .  S
Zn783       O792   2.017       .  S
Zn783       O799   2.007       .  S
Zn784       O787   1.955       .  S
Zn784       O789   1.998       .  S
Zn784       O791   2.021       .  S
Zn784       O795   2.015       .  S
Zn785       O787   1.974       .  S
Zn785       O790   2.033       .  S
Zn785       O793   2.034       .  S
Zn785       O796   2.032       .  S
Zn786       O787   1.968       .  S
Zn786       O794   2.012       .  S
Zn786       O797   2.032       .  S
Zn786       O798   2.018       .  S
O788        C800   1.272       .  A
O789        C801   1.270       .  A
O790        C802   1.273       .  A
O791        C800   1.272       .  A
O792        C802   1.272       .  A
O793        C801   1.274       .  A
O794        C803   1.271       .  A
O795        C804   1.271       .  A
O796        C803   1.274       .  A
O797        C804   1.273       .  A
O798        C805   1.272       .  A
O799        C805   1.271       .  A
C800       C3204   1.438       .  S
C801       C2544   1.433       .  S
C802       C2518   1.439       .  S
C803       C2698   1.437       .  S
C804       C2558   1.439       .  S
C805       C2530   1.432       .  S
Zn806       O810   1.961       .  S
Zn806       O811   2.009       .  S
Zn806       O815   2.025       .  S
Zn806       O822   2.009       .  S
Zn807       O810   1.974       .  S
Zn807       O812   2.037       .  S
Zn807       O814   2.039       .  S
Zn807       O818   2.028       .  S
Zn808       O810   1.953       .  S
Zn808       O813   2.011       .  S
Zn808       O816   1.996       .  S
Zn808       O819   2.014       .  S
Zn809       O810   1.965       .  S
Zn809       O817   2.027       .  S
Zn809       O820   2.013       .  S
Zn809       O821   2.016       .  S
O811        C823   1.271       .  A
O812        C824   1.275       .  A
O813        C825   1.271       .  A
O814        C823   1.275       .  A
O815        C825   1.272       .  A
O816        C824   1.270       .  A
O817        C826   1.272       .  A
O818        C827   1.273       .  A
O819        C826   1.271       .  A
O820        C827   1.271       .  A
O821        C828   1.272       .  A
O822        C828   1.271       .  A
C823       C2502   1.439       .  S
C824       C2546   1.434   1_655  S
C825       C2616   1.435       .  S
C826       C2488   1.437       .  S
C827       C3160   1.437       .  S
C828       C2532   1.432       .  S
Zn829       O833   1.954       .  S
Zn829       O834   2.021       .  S
Zn829       O838   2.012       .  S
Zn829       O845   2.001       .  S
Zn830       O833   1.960       .  S
Zn830       O835   2.005       .  S
Zn830       O837   2.023       .  S
Zn830       O841   2.009       .  S
Zn831       O833   1.967       .  S
Zn831       O836   2.032       .  S
Zn831       O839   2.021       .  S
Zn831       O842   2.017       .  S
Zn832       O833   1.974       .  S
Zn832       O840   2.030       .  S
Zn832       O843   2.022       .  S
Zn832       O844   2.032       .  S
O834        C846   1.272       .  A
O835        C847   1.271       .  A
O836        C848   1.274       .  A
O837        C846   1.272       .  A
O838        C848   1.271       .  A
O839        C847   1.272       .  A
O840        C849   1.273       .  A
O841        C850   1.271       .  A
O842        C849   1.272       .  A
O843        C850   1.272       .  A
O844        C851   1.274       .  A
O845        C851   1.270       .  A
C846       C2418   1.438       .  S
C847       C2460   1.432       .  S
C848       C2602   1.438       .  S
C849       C2476   1.438       .  S
C850       C2432   1.434       .  S
C851       C2448   1.434   1_455  S
Zn852       O856   1.954       .  S
Zn852       O857   2.018       .  S
Zn852       O861   2.008       .  S
Zn852       O868   1.998       .  S
Zn853       O856   1.958       .  S
Zn853       O858   2.010       .  S
Zn853       O860   2.024       .  S
Zn853       O864   2.014       .  S
Zn854       O856   1.968       .  S
Zn854       O859   2.034       .  S
Zn854       O862   2.023       .  S
Zn854       O865   2.015       .  S
Zn855       O856   1.972       .  S
Zn855       O863   2.022       .  S
Zn855       O866   2.024       .  S
Zn855       O867   2.026       .  S
O857        C869   1.272       .  A
O858        C870   1.272       .  A
O859        C871   1.274       .  A
O860        C869   1.272       .  A
O861        C871   1.271       .  A
O862        C870   1.273       .  A
O863        C872   1.272       .  A
O864        C873   1.271       .  A
O865        C872   1.271       .  A
O866        C873   1.272       .  A
O867        C874   1.273       .  A
O868        C874   1.270       .  A
C869       C2376   1.437       .  S
C870       C2446   1.434       .  S
C871       C2686   1.437       .  S
C872       C2404   1.436       .  S
C873       C2392   1.436       .  S
C874       C2462   1.432       .  S
Zn875       O879   1.959       .  S
Zn875       O880   2.011       .  S
Zn875       O884   2.026       .  S
Zn875       O891   2.018       .  S
Zn876       O879   1.968       .  S
Zn876       O881   2.033       .  S
Zn876       O883   2.017       .  S
Zn876       O887   2.010       .  S
Zn877       O879   1.953       .  S
Zn877       O882   2.018       .  S
Zn877       O885   2.008       .  S
Zn877       O888   2.000       .  S
Zn878       O879   1.972       .  S
Zn878       O886   2.030       .  S
Zn878       O889   2.030       .  S
Zn878       O890   2.029       .  S
O880        C892   1.272       .  A
O881        C893   1.273       .  A
O882        C894   1.272       .  A
O883        C892   1.272       .  A
O884        C894   1.273       .  A
O885        C893   1.270       .  A
O886        C895   1.274       .  A
O887        C896   1.271       .  A
O888        C895   1.271       .  A
O889        C896   1.273       .  A
O890        C897   1.273       .  A
O891        C897   1.272       .  A
C892       C2350   1.433       .  S
C893       C2560   1.437       .  S
C894       C2728   1.438       .  S
C895       C2362   1.433       .  S
C896       C2474   1.437       .  S
C897       C2334   1.438       .  S
Zn898       O902   1.971       .  S
Zn898       O903   2.030       .  S
Zn898       O907   2.025       .  S
Zn898       O914   2.031       .  S
Zn899       O902   1.953       .  S
Zn899       O904   2.012       .  S
Zn899       O906   2.001       .  S
Zn899       O910   2.014       .  S
Zn900       O902   1.967       .  S
Zn900       O905   2.012       .  S
Zn900       O908   2.037       .  S
Zn900       O911   2.022       .  S
Zn901       O902   1.957       .  S
Zn901       O909   2.006       .  S
Zn901       O912   2.018       .  S
Zn901       O913   2.013       .  S
O903        C915   1.274       .  A
O904        C916   1.271       .  A
O905        C917   1.271       .  A
O906        C915   1.270       .  A
O907        C917   1.273       .  A
O908        C916   1.274       .  A
O909        C918   1.271       .  A
O910        C919   1.272       .  A
O911        C918   1.273       .  A
O912        C919   1.272       .  A
O913        C920   1.271       .  A
O914        C920   1.273       .  A
C915       C2348   1.433       .  S
C916       C2504   1.439       .  S
C917       C2406   1.435       .  S
C918       C2364   1.433       .  S
C919       C2714   1.434       .  S
C920       C2320   1.438       .  S
Zn921       O925   1.968       .  S
Zn921       O926   2.032       .  S
Zn921       O930   2.020       .  S
Zn921       O937   2.015       .  S
Zn922       O925   1.953       .  S
Zn922       O927   1.996       .  S
Zn922       O929   2.010       .  S
Zn922       O933   2.010       .  S
Zn923       O925   1.974       .  S
Zn923       O928   2.031       .  S
Zn923       O931   2.040       .  S
Zn923       O934   2.042       .  S
Zn924       O925   1.964       .  S
Zn924       O932   2.016       .  S
Zn924       O935   2.030       .  S
Zn924       O936   2.006       .  S
O926        C938   1.273       .  A
O927        C939   1.270       .  A
O928        C940   1.274       .  A
O929        C938   1.270       .  A
O930        C940   1.272       .  A
O931        C939   1.275       .  A
O932        C941   1.272       .  A
O933        C942   1.270       .  A
O934        C941   1.275       .  A
O935        C942   1.273       .  A
O936        C943   1.271       .  A
O937        C943   1.272       .  A
C938       C2642   1.438       .  S
C939       C2264   1.435       .  S
C940       C2250   1.440       .  S
C941       C2294   1.442       .  S
C942       C2308   1.437       .  S
C943       C2278   1.430       .  S
Zn944       O948   1.960       .  S
Zn944       O949   2.014       .  S
Zn944       O953   2.005       .  S
Zn944       O960   2.019       .  S
Zn945       O948   1.974       .  S
Zn945       O950   2.033       .  S
Zn945       O952   2.037       .  S
Zn945       O956   2.037       .  S
Zn946       O948   1.968       .  S
Zn946       O951   2.017       .  S
Zn946       O954   2.011       .  S
Zn946       O957   2.035       .  S
Zn947       O948   1.952       .  S
Zn947       O955   2.008       .  S
Zn947       O958   1.995       .  S
Zn947       O959   2.012       .  S
O949        C961   1.271       .  A
O950        C962   1.274       .  A
O951        C963   1.272       .  A
O952        C961   1.274       .  A
O953        C963   1.271       .  A
O954        C962   1.271       .  A
O955        C964   1.270       .  A
O956        C965   1.275       .  A
O957        C964   1.273       .  A
O958        C965   1.270       .  A
O959        C966   1.271       .  A
O960        C966   1.272       .  A
C961       C2586   1.439       .  S
C962       C2236   1.437       .  S
C963       C2280   1.430   1_655  S
C964       C2224   1.438       .  S
C965       C2266   1.434       .  S
C966       C2208   1.434       .  S
Zn967       O971   1.960       .  S
Zn967       O972   2.021       .  S
Zn967       O976   2.015       .  S
Zn967       O983   2.007       .  S
Zn968       O971   1.954       .  S
Zn968       O973   1.999       .  S
Zn968       O975   2.016       .  S
Zn968       O979   2.013       .  S
Zn969       O971   1.974       .  S
Zn969       O974   2.031       .  S
Zn969       O977   2.034       .  S
Zn969       O980   2.027       .  S
Zn970       O971   1.969       .  S
Zn970       O978   2.014       .  S
Zn970       O981   2.037       .  S
Zn970       O982   2.025       .  S
O972        C984   1.272       .  A
O973        C985   1.270       .  A
O974        C986   1.273       .  A
O975        C984   1.272       .  A
O976        C986   1.271       .  A
O977        C985   1.274       .  A
O978        C987   1.272       .  A
O979        C988   1.271       .  A
O980        C987   1.273       .  A
O981        C988   1.274       .  A
O982        C989   1.273       .  A
O983        C989   1.271       .  A
C984       C3050   1.436       .  S
C985       C2168   1.434       .  S
C986       C2516   1.439       .  S
C987       C2306   1.436       .  S
C988       C2194   1.439       .  S
C989       C2182   1.433       .  S
Zn990       O994   1.953       .  S
Zn990       O995   1.997       .  S
Zn990       O999   2.010       .  S
Zn990      O1006   2.015       .  S
Zn991       O994   1.974       .  S
Zn991       O996   2.028       .  S
Zn991       O998   2.036       .  S
Zn991      O1002   2.035       .  S
Zn992       O994   1.966   1_455  S
Zn992       O997   2.025   1_455  S
Zn992      O1000   2.018       .  S
Zn992      O1003   2.018       .  S
Zn993       O994   1.960   1_455  S
Zn993      O1001   2.010       .  S
Zn993      O1004   2.007       .  S
Zn993      O1005   2.027   1_455  S
O995       C1007   1.270       .  A
O996       C1008   1.273       .  A
O997       C1009   1.272       .  A
O998       C1007   1.274       .  A
O999       C1009   1.271       .  A
O1000      C1008   1.272   1_455  A
O1001      C1010   1.271       .  A
O1002      C1011   1.274   1_655  A
O1003      C1010   1.272       .  A
O1004      C1011   1.271       .  A
O1005      C1012   1.272       .  A
O1006      C1012   1.271       .  A
C1007      C2166   1.434       .  S
C1008      C3092   1.437       .  S
C1009      C2490   1.435       .  S
C1010      C2180   1.433       .  S
C1011      C2154   1.437       .  S
C1012      C2238   1.437       .  S
Zn1013     O1017   1.953   1_565  S
Zn1013     O1018   1.994       .  S
Zn1013     O1022   2.006       .  S
Zn1013     O1029   2.008       .  S
Zn1014     O1017   1.973       .  S
Zn1014     O1019   2.030       .  S
Zn1014     O1021   2.035       .  S
Zn1014     O1025   2.041       .  S
Zn1015     O1017   1.967   1_565  S
Zn1015     O1020   2.026       .  S
Zn1015     O1023   2.020       .  S
Zn1015     O1026   2.017       .  S
Zn1016     O1017   1.963       .  S
Zn1016     O1024   2.009       .  S
Zn1016     O1027   2.013       .  S
Zn1016     O1028   2.031       .  S
O1018      C1030   1.270   1_565  A
O1019      C1031   1.273       .  A
O1020      C1032   1.272       .  A
O1021      C1030   1.274       .  A
O1022      C1032   1.270       .  A
O1023      C1031   1.272   1_565  A
O1024      C1033   1.271   1_545  A
O1025      C1034   1.275       .  A
O1026      C1033   1.272       .  A
O1027      C1034   1.271       .  A
O1028      C1035   1.273       .  A
O1029      C1035   1.270   1_565  A
C1030      C2110   1.433       .  S
C1031      C2096   1.439       .  S
C1032      C2434   1.434       .  S
C1033      C2124   1.432       .  S
C1034      C2292   1.441       .  S
C1035      C2140   1.437       .  S
Zn1036     O1040   1.952       .  S
Zn1036     O1041   1.995       .  S
Zn1036     O1045   2.014       .  S
Zn1036     O1052   2.004       .  S
Zn1037     O1040   1.971   1_565  S
Zn1037     O1042   2.027       .  S
Zn1037     O1044   2.033       .  S
Zn1037     O1048   2.030       .  S
Zn1038     O1040   1.957   1_565  S
Zn1038     O1043   2.018       .  S
Zn1038     O1046   2.006       .  S
Zn1038     O1049   2.004       .  S
Zn1039     O1040   1.965       .  S
Zn1039     O1047   2.023       .  S
Zn1039     O1050   2.014       .  S
Zn1039     O1051   2.031       .  S
O1041      C1053   1.269   1_545  A
O1042      C1054   1.273       .  A
O1043      C1055   1.271   1_565  A
O1044      C1053   1.274       .  A
O1045      C1055   1.271       .  A
O1046      C1054   1.271       .  A
O1047      C1056   1.273       .  A
O1048      C1057   1.273   1_565  A
O1049      C1056   1.271   1_565  A
O1050      C1057   1.271       .  A
O1051      C1058   1.273       .  A
O1052      C1058   1.270       .  A
C1053      C2112   1.433       .  S
C1054      C2390   1.435       .  S
C1055      C2070   1.434       .  S
C1056      C2126   1.432       .  S
C1057      C2082   1.438       .  S
C1058      C2222   1.436       .  S
Zn1059     O1063   1.958   1_565  S
Zn1059     O1064   2.020       .  S
Zn1059     O1068   2.013       .  S
Zn1059     O1075   2.004       .  S
Zn1060     O1063   1.953       .  S
Zn1060     O1065   1.996       .  S
Zn1060     O1067   2.013       .  S
Zn1060     O1071   2.007       .  S
Zn1061     O1063   1.973   1_565  S
Zn1061     O1066   2.029       .  S
Zn1061     O1069   2.029       .  S
Zn1061     O1072   2.028       .  S
Zn1062     O1063   1.967       .  S
Zn1062     O1070   2.016       .  S
Zn1062     O1073   2.036       .  S
Zn1062     O1074   2.022       .  S
O1064      C1076   1.272   1_565  A
O1065      C1077   1.270   1_545  A
O1066      C1078   1.273       .  A
O1067      C1076   1.271       .  A
O1068      C1078   1.271       .  A
O1069      C1077   1.274       .  A
O1070      C1079   1.272       .  A
O1071      C1080   1.270       .  A
O1072      C1079   1.273   1_565  A
O1073      C1080   1.274       .  A
O1074      C1081   1.273       .  A
O1075      C1081   1.271   1_565  A
C1076      C2854   1.435       .  S
C1077      C2040   1.432   1_455  S
C1078      C2336   1.437       .  S
C1079      C2138   1.437       .  S
C1080      C2152   1.437       .  S
C1081      C2054   1.432       .  S
Zn1082     O1086   1.974       .  S
Zn1082     O1087   2.033       .  S
Zn1082     O1091   2.027       .  S
Zn1082     O1098   2.033       .  S
Zn1083     O1086   1.963       .  S
Zn1083     O1088   2.014       .  S
Zn1083     O1090   2.010       .  S
Zn1083     O1094   2.036       .  S
Zn1084     O1086   1.967   1_565  S
Zn1084     O1089   2.022       .  S
Zn1084     O1092   2.019       .  S
Zn1084     O1095   2.028       .  S
Zn1085     O1086   1.952   1_565  S
Zn1085     O1093   2.010       .  S
Zn1085     O1096   2.013       .  S
Zn1085     O1097   1.996       .  S
O1087      C1099   1.274       .  A
O1088      C1100   1.272   1_545  A
O1089      C1101   1.272   1_565  A
O1090      C1099   1.271       .  A
O1091      C1101   1.273       .  A
O1092      C1100   1.272       .  A
O1093      C1102   1.271       .  A
O1094      C1103   1.274       .  A
O1095      C1102   1.273       .  A
O1096      C1103   1.271   1_565  A
O1097      C1104   1.270   1_565  A
O1098      C1104   1.274       .  A
C1099      C2196   1.437       .  S
C1100      C2056   1.434       .  S
C1101      C2826   1.439       .  S
C1102      C2322   1.436       .  S
C1103      C2084   1.439       .  S
C1104      C2042   1.432       .  S
Zn1105     O1109   1.958       .  S
Zn1105     O1110   2.016       .  S
Zn1105     O1114   2.005       .  S
Zn1105     O1121   2.010       .  S
Zn1106     O1109   1.953       .  S
Zn1106     O1111   2.010       .  S
Zn1106     O1113   2.013       .  S
Zn1106     O1117   2.000       .  S
Zn1107     O1109   1.967       .  S
Zn1107     O1112   2.023       .  S
Zn1107     O1115   2.035       .  S
Zn1107     O1118   2.014       .  S
Zn1108     O1109   1.971       .  S
Zn1108     O1116   2.029       .  S
Zn1108     O1119   2.031       .  S
Zn1108     O1120   2.028       .  S
O1110      C1122   1.271       .  A
O1111      C1123   1.271       .  A
O1112      C1124   1.273       .  A
O1113      C1122   1.271       .  A
O1114      C1124   1.271       .  A
O1115      C1123   1.274       .  A
O1116      C1125   1.274       .  A
O1117      C1126   1.270       .  A
O1118      C1125   1.272       .  A
O1119      C1126   1.274       .  A
O1120      C1127   1.273       .  A
O1121      C1127   1.271       .  A
C1122      C4086   1.434       .  S
C1123      C2012   1.439       .  S
C1124      C1986   1.432   1_455  S
C1125      C2026   1.437       .  S
C1126      C1998   1.433       .  S
C1127      C1970   1.436       .  S
Zn1128     O1132   1.953       .  S
Zn1128     O1133   1.997       .  S
Zn1128     O1137   2.008       .  S
Zn1128     O1144   2.018       .  S
Zn1129     O1132   1.974       .  S
Zn1129     O1134   2.026       .  S
Zn1129     O1136   2.030       .  S
Zn1129     O1140   2.029       .  S
Zn1130     O1132   1.969       .  S
Zn1130     O1135   2.039       .  S
Zn1130     O1138   2.018       .  S
Zn1130     O1141   2.026       .  S
Zn1131     O1132   1.958       .  S
Zn1131     O1139   2.005       .  S
Zn1131     O1142   2.009       .  S
Zn1131     O1143   2.024       .  S
O1133      C1145   1.270       .  A
O1134      C1146   1.273       .  A
O1135      C1147   1.274       .  A
O1136      C1145   1.274       .  A
O1137      C1147   1.271       .  A
O1138      C1146   1.272       .  A
O1139      C1148   1.271       .  A
O1140      C1149   1.273       .  A
O1141      C1148   1.273       .  A
O1142      C1149   1.271       .  A
O1143      C1150   1.272       .  A
O1144      C1150   1.271       .  A
C1145      C1984   1.432       .  S
C1146      C1956   1.438       .  S
C1147      C1942   1.439       .  S
C1148      C2000   1.433       .  S
C1149      C1928   1.436       .  S
C1150      C4030   1.438       .  S
Zn1151     O1155   1.965   1_655  S
Zn1151     O1156   2.018       .  S
Zn1151     O1160   2.026       .  S
Zn1151     O1167   2.016       .  S
Zn1152     O1155   1.973       .  S
Zn1152     O1157   2.029       .  S
Zn1152     O1159   2.025       .  S
Zn1152     O1163   2.034       .  S
Zn1153     O1155   1.951       .  S
Zn1153     O1158   2.006       .  S
Zn1153     O1161   1.994       .  S
Zn1153     O1164   2.012       .  S
Zn1154     O1155   1.959   1_655  S
Zn1154     O1162   2.028       .  S
Zn1154     O1165   2.011       .  S
Zn1154     O1166   2.009       .  S
O1156      C1168   1.272   1_655  A
O1157      C1169   1.274       .  A
O1158      C1170   1.270       .  A
O1159      C1168   1.273       .  A
O1160      C1170   1.273   1_655  A
O1161      C1169   1.270       .  A
O1162      C1171   1.273   1_655  A
O1163      C1172   1.274   1_455  A
O1164      C1171   1.271       .  A
O1165      C1172   1.271       .  A
O1166      C1173   1.272       .  A
O1167      C1173   1.272       .  A
C1168      C2574   1.437       .  S
C1169      C1900   1.431       .  S
C1170      C1872   1.435       .  S
C1171      C2028   1.437       .  S
C1172      C1916   1.438       .  S
C1173      C1886   1.432       .  S
Zn1174     O1178   1.960       .  S
Zn1174     O1179   2.016       .  S
Zn1174     O1183   2.024       .  S
Zn1174     O1190   2.009       .  S
Zn1175     O1178   1.973       .  S
Zn1175     O1180   2.033       .  S
Zn1175     O1182   2.035       .  S
Zn1175     O1186   2.029       .  S
Zn1176     O1178   1.954       .  S
Zn1176     O1181   2.015       .  S
Zn1176     O1184   1.996       .  S
Zn1176     O1187   2.007       .  S
Zn1177     O1178   1.969       .  S
Zn1177     O1185   2.036       .  S
Zn1177     O1188   2.016       .  S
Zn1177     O1189   2.022       .  S
O1179      C1191   1.272       .  A
O1180      C1192   1.274       .  A
O1181      C1193   1.271       .  A
O1182      C1191   1.274       .  A
O1183      C1193   1.272       .  A
O1184      C1192   1.270       .  A
O1185      C1194   1.274       .  A
O1186      C1195   1.273       .  A
O1187      C1194   1.270       .  A
O1188      C1195   1.272       .  A
O1189      C1196   1.273       .  A
O1190      C1196   1.271       .  A
C1191      C1844   1.439       .  S
C1192      C1902   1.432       .  S
C1193      C2630   1.436       .  S
C1194      C1860   1.438       .  S
C1195      C1958   1.438       .  S
C1196      C1888   1.433       .  S
Zn1197     O1201   1.953       .  S
Zn1197     O1202   2.013       .  S
Zn1197     O1206   1.995       .  S
Zn1197     O1213   2.010       .  S
Zn1198     O1201   1.968       .  S
Zn1198     O1203   2.019       .  S
Zn1198     O1205   2.031       .  S
Zn1198     O1209   2.022       .  S
Zn1199     O1201   1.974       .  S
Zn1199     O1204   2.034       .  S
Zn1199     O1207   2.021       .  S
Zn1199     O1210   2.039       .  S
Zn1200     O1201   1.963       .  S
Zn1200     O1208   2.015       .  S
Zn1200     O1211   2.011       .  S
Zn1200     O1212   2.030       .  S
O1202      C1214   1.271       .  A
O1203      C1215   1.272       .  A
O1204      C1216   1.274       .  A
O1205      C1214   1.273       .  A
O1206      C1216   1.270       .  A
O1207      C1215   1.272       .  A
O1208      C1217   1.271       .  A
O1209      C1218   1.273       .  A
O1210      C1217   1.274       .  A
O1211      C1218   1.272       .  A
O1212      C1219   1.273       .  A
O1213      C1219   1.271       .  A
C1214      C1790   1.438       .  S
C1215      C3652   1.436       .  S
C1216      C1802   1.433       .  S
C1217      C2014   1.440       .  S
C1218      C1816   1.434       .  S
C1219      C1830   1.437       .  S
Zn1220     O1224   1.964       .  S
Zn1220     O1225   2.011       .  S
Zn1220     O1229   2.013       .  S
Zn1220     O1236   2.028       .  S
Zn1221     O1224   1.975       .  S
Zn1221     O1226   2.026       .  S
Zn1221     O1228   2.038       .  S
Zn1221     O1232   2.039       .  S
Zn1222     O1224   1.966       .  S
Zn1222     O1227   2.019       .  S
Zn1222     O1230   2.017       .  S
Zn1222     O1233   2.031       .  S
Zn1223     O1224   1.953       .  S
Zn1223     O1231   2.012       .  S
Zn1223     O1234   1.997       .  S
Zn1223     O1235   2.006       .  S
O1225      C1237   1.271       .  A
O1226      C1238   1.273       .  A
O1227      C1239   1.272       .  A
O1228      C1237   1.274       .  A
O1229      C1239   1.272       .  A
O1230      C1238   1.272       .  A
O1231      C1240   1.271       .  A
O1232      C1241   1.275       .  A
O1233      C1240   1.273       .  A
O1234      C1241   1.270       .  A
O1235      C1242   1.270       .  A
O1236      C1242   1.273       .  A
C1237      C1944   1.439       .  S
C1238      C3610   1.437       .  S
C1239      C1804   1.434       .  S
C1240      C1760   1.438       .  S
C1241      C1818   1.435       .  S
C1242      C1774   1.435       .  S
Zn1243     O1247   1.951       .  S
Zn1243     O1248   2.012       .  S
Zn1243     O1252   1.994       .  S
Zn1243     O1259   2.008       .  S
Zn1244     O1247   1.967       .  S
Zn1244     O1249   2.026       .  S
Zn1244     O1251   2.037       .  S
Zn1244     O1255   2.018       .  S
Zn1245     O1247   1.974       .  S
Zn1245     O1250   2.034       .  S
Zn1245     O1253   2.026       .  S
Zn1245     O1256   2.036       .  S
Zn1246     O1247   1.963       .  S
Zn1246     O1254   2.012       .  S
Zn1246     O1257   2.007       .  S
Zn1246     O1258   2.029       .  S
O1248      C1260   1.271       .  A
O1249      C1261   1.273       .  A
O1250      C1262   1.274       .  A
O1251      C1260   1.274       .  A
O1252      C1262   1.270       .  A
O1253      C1261   1.273       .  A
O1254      C1263   1.271       .  A
O1255      C1264   1.273       .  A
O1256      C1263   1.274       .  A
O1257      C1264   1.271       .  A
O1258      C1265   1.273       .  A
O1259      C1265   1.270       .  A
C1260      C1718   1.439       .  S
C1261      C2252   1.440       .  S
C1262      C1746   1.432       .  S
C1263      C1858   1.439       .  S
C1264      C1732   1.431       .  S
C1265      C1832   1.436       .  S
Zn1266     O1270   1.951       .  S
Zn1266     O1271   2.006       .  S
Zn1266     O1275   2.014       .  S
Zn1266     O1282   1.998       .  S
Zn1267     O1270   1.967       .  S
Zn1267     O1272   2.023       .  S
Zn1267     O1274   2.036       .  S
Zn1267     O1278   2.012       .  S
Zn1268     O1270   1.957       .  S
Zn1268     O1273   2.017       .  S
Zn1268     O1276   2.005       .  S
Zn1268     O1279   2.011       .  S
Zn1269     O1270   1.972       .  S
Zn1269     O1277   2.027       .  S
Zn1269     O1280   2.026       .  S
Zn1269     O1281   2.030       .  S
O1271      C1283   1.270       .  A
O1272      C1284   1.273       .  A
O1273      C1285   1.271       .  A
O1274      C1283   1.274       .  A
O1275      C1285   1.271       .  A
O1276      C1284   1.271       .  A
O1277      C1286   1.273       .  A
O1278      C1287   1.272       .  A
O1279      C1286   1.271       .  A
O1280      C1287   1.273       .  A
O1281      C1288   1.273       .  A
O1282      C1288   1.270       .  A
C1283      C1914   1.438       .  S
C1284      C1734   1.432       .  S
C1285      C2210   1.434       .  S
C1286      C1704   1.436       .  S
C1287      C1776   1.435       .  S
C1288      C1748   1.433       .  S
Zn1289     O1293   1.953       .  S
Zn1289     O1294   2.021       .  S
Zn1289     O1298   1.997       .  S
Zn1289     O1305   2.003       .  S
Zn1290     O1293   1.959   1_545  S
Zn1290     O1295   2.011       .  S
Zn1290     O1297   2.030       .  S
Zn1290     O1301   2.008       .  S
Zn1291     O1293   1.973   1_545  S
Zn1291     O1296   2.028       .  S
Zn1291     O1299   2.027       .  S
Zn1291     O1302   2.026       .  S
Zn1292     O1293   1.970       .  S
Zn1292     O1300   2.020       .  S
Zn1292     O1303   2.025       .  S
Zn1292     O1304   2.034       .  S
O1294      C1306   1.272       .  A
O1295      C1307   1.271       .  A
O1296      C1308   1.273       .  A
O1297      C1306   1.273   1_545  A
O1298      C1308   1.270   1_565  A
O1299      C1307   1.273       .  A
O1300      C1309   1.272       .  A
O1301      C1310   1.271   1_545  A
O1302      C1309   1.273   1_545  A
O1303      C1310   1.273       .  A
O1304      C1311   1.274       .  A
O1305      C1311   1.270       .  A
C1306      C3470   1.440       .  S
C1307      C1788   1.436       .  S
C1308      C1650   1.432       .  S
C1309      C1690   1.438       .  S
C1310      C1662   1.434       .  S
C1311      C1678   1.436       .  S
Zn1312     O1316   1.951       .  S
Zn1312     O1317   2.000       .  S
Zn1312     O1321   2.009       .  S
Zn1312     O1328   2.011       .  S
Zn1313     O1316   1.969   1_545  S
Zn1313     O1318   2.021       .  S
Zn1313     O1320   2.029       .  S
Zn1313     O1324   2.029       .  S
Zn1314     O1316   1.965       .  S
Zn1314     O1319   2.028       .  S
Zn1314     O1322   2.006       .  S
Zn1314     O1325   2.018       .  S
Zn1315     O1316   1.956   1_545  S
Zn1315     O1323   2.004       .  S
Zn1315     O1326   2.010       .  S
Zn1315     O1327   2.014       .  S
O1317      C1329   1.270   1_565  A
O1318      C1330   1.273   1_545  A
O1319      C1331   1.273       .  A
O1320      C1329   1.273       .  A
O1321      C1331   1.270       .  A
O1322      C1330   1.271       .  A
O1323      C1332   1.270   1_545  A
O1324      C1333   1.273       .  A
O1325      C1332   1.272       .  A
O1326      C1333   1.271       .  A
O1327      C1334   1.271   1_545  A
O1328      C1334   1.271       .  A
C1329      C1664   1.433       .  S
C1330      C1634   1.433       .  S
C1331      C1620   1.436       .  S
C1332      C1648   1.431       .  S
C1333      C1762   1.437       .  S
C1334      C3440   1.432       .  S
Zn1335     O1339   1.975   1_545  S
Zn1335     O1340   2.033       .  S
Zn1335     O1344   2.031       .  S
Zn1335     O1351   2.036       .  S
Zn1336     O1339   1.960   1_545  S
Zn1336     O1341   2.008       .  S
Zn1336     O1343   2.014       .  S
Zn1336     O1347   2.025       .  S
Zn1337     O1339   1.969       .  S
Zn1337     O1342   2.018       .  S
Zn1337     O1345   2.019       .  S
Zn1337     O1348   2.033       .  S
Zn1338     O1339   1.954       .  S
Zn1338     O1346   2.008       .  S
Zn1338     O1349   2.022       .  S
Zn1338     O1350   1.999       .  S
O1340      C1352   1.274       .  A
O1341      C1353   1.271   1_545  A
O1342      C1354   1.272       .  A
O1343      C1352   1.272       .  A
O1344      C1354   1.273   1_545  A
O1345      C1353   1.272       .  A
O1346      C1355   1.270       .  A
O1347      C1356   1.272   1_545  A
O1348      C1355   1.274       .  A
O1349      C1356   1.272       .  A
O1350      C1357   1.270   1_565  A
O1351      C1357   1.275       .  A
C1352      C1720   1.439       .  S
C1353      C1580   1.432       .  S
C1354      C1692   1.439       .  S
C1355      C1608   1.437       .  S
C1356      C2098   1.439       .  S
C1357      C1594   1.434       .  S
Zn1358     O1362   1.972       .  S
Zn1358     O1363   2.019       .  S
Zn1358     O1367   2.033       .  S
Zn1358     O1374   2.037       .  S
Zn1359     O1362   1.966   1_545  S
Zn1359     O1364   2.023       .  S
Zn1359     O1366   2.016       .  S
Zn1359     O1370   2.032       .  S
Zn1360     O1362   1.960       .  S
Zn1360     O1365   2.007       .  S
Zn1360     O1368   2.008       .  S
Zn1360     O1371   2.023       .  S
Zn1361     O1362   1.952   1_545  S
Zn1361     O1369   2.009       .  S
Zn1361     O1372   2.009       .  S
Zn1361     O1373   1.999       .  S
O1363      C1375   1.272       .  A
O1364      C1376   1.273       .  A
O1365      C1377   1.270       .  A
O1366      C1375   1.272   1_545  A
O1367      C1377   1.274       .  A
O1368      C1376   1.271   1_565  A
O1369      C1378   1.271   1_545  A
O1370      C1379   1.274       .  A
O1371      C1378   1.272       .  A
O1372      C1379   1.271       .  A
O1373      C1380   1.270   1_545  A
O1374      C1380   1.274       .  A
C1375      C2068   1.435       .  S
C1376      C1578   1.434       .  S
C1377      C1564   1.437       .  S
C1378      C1636   1.434       .  S
C1379      C1706   1.436       .  S
C1380      C1592   1.435       .  S
Zn1381     O1385   1.953   1_655  S
Zn1381     O1386   1.994       .  S
Zn1381     O1390   2.008       .  S
Zn1381     O1397   2.014       .  S
Zn1382     O1385   1.972   1_655  S
Zn1382     O1387   2.026       .  S
Zn1382     O1389   2.028       .  S
Zn1382     O1393   2.025       .  S
Zn1383     O1385   1.967       .  S
Zn1383     O1388   2.034       .  S
Zn1383     O1391   2.015       .  S
Zn1383     O1394   2.024       .  S
Zn1384     O1385   1.958       .  S
Zn1384     O1392   2.006       .  S
Zn1384     O1395   2.012       .  S
Zn1384     O1396   2.021       .  S
O1386      C1398   1.270       .  A
O1387      C1399   1.273   1_655  A
O1388      C1400   1.274   1_455  A
O1389      C1398   1.273       .  A
O1390      C1400   1.270       .  A
O1391      C1399   1.272       .  A
O1392      C1401   1.271       .  A
O1393      C1402   1.273   1_655  A
O1394      C1401   1.273       .  A
O1395      C1402   1.271       .  A
O1396      C1403   1.272       .  A
O1397      C1403   1.271   1_655  A
C1398      C1524   1.431       .  S
C1399      C1550   1.437       .  S
C1400      C1622   1.437       .  S
C1401      C1536   1.433       .  S
C1402      C1972   1.436       .  S
C1403      C3806   1.436       .  S
Zn1404     O1408   1.974       .  S
Zn1404     O1409   2.034       .  S
Zn1404     O1413   2.032       .  S
Zn1404     O1420   2.024       .  S
Zn1405     O1408   1.960       .  S
Zn1405     O1410   2.029       .  S
Zn1405     O1412   2.008       .  S
Zn1405     O1416   2.012       .  S
Zn1406     O1408   1.951       .  S
Zn1406     O1411   1.992       .  S
Zn1406     O1414   2.008       .  S
Zn1406     O1417   2.005       .  S
Zn1407     O1408   1.965       .  S
Zn1407     O1415   2.028       .  S
Zn1407     O1418   2.020       .  S
Zn1407     O1419   2.018       .  S
O1409      C1421   1.274       .  A
O1410      C1422   1.273       .  A
O1411      C1423   1.269       .  A
O1412      C1421   1.271       .  A
O1413      C1423   1.274       .  A
O1414      C1422   1.270       .  A
O1415      C1424   1.273       .  A
O1416      C1425   1.272       .  A
O1417      C1424   1.270       .  A
O1418      C1425   1.273       .  A
O1419      C1426   1.272       .  A
O1420      C1426   1.273       .  A
C1421      C1676   1.437       .  S
C1422      C1508   1.436       .  S
C1423      C1522   1.431       .  S
C1424      C1930   1.435       .  S
C1425      C1538   1.434       .  S
C1426      C3848   1.437       .  S
Zn1427     O1431   1.951       .  S
Zn1427     O1432   2.009       .  S
Zn1427     O1436   1.993       .  S
Zn1427     O1443   2.009       .  S
Zn1428     O1431   1.966       .  S
Zn1428     O1433   2.018       .  S
Zn1428     O1435   2.027       .  S
Zn1428     O1439   2.017       .  S
Zn1429     O1431   1.974       .  S
Zn1429     O1434   2.034       .  S
Zn1429     O1437   2.024       .  S
Zn1429     O1440   2.032       .  S
Zn1430     O1431   1.963       .  S
Zn1430     O1438   2.014       .  S
Zn1430     O1441   2.015       .  S
Zn1430     O1442   2.038       .  S
O1432      C1444   1.271       .  A
O1433      C1445   1.272       .  A
O1434      C1446   1.274       .  A
O1435      C1444   1.273       .  A
O1436      C1446   1.269       .  A
O1437      C1445   1.272       .  A
O1438      C1447   1.272       .  A
O1439      C1448   1.272       .  A
O1440      C1447   1.274       .  A
O1441      C1448   1.272       .  A
O1442      C1449   1.274       .  A
O1443      C1449   1.270       .  A
C1444      C1874   1.436       .  S
C1445      C2420   1.437       .  S
C1446      C1480   1.433   1_455  S
C1447      C1606   1.438       .  S
C1448      C1494   1.434       .  S
C1449      C1552   1.438       .  S
Zn1450     O1454   1.953       .  S
Zn1450     O1455   2.008       .  S
Zn1450     O1459   2.016       .  S
Zn1450     O1466   1.998       .  S
Zn1451     O1454   1.964       .  S
Zn1451     O1456   2.015       .  S
Zn1451     O1458   2.032       .  S
Zn1451     O1462   2.012       .  S
Zn1452     O1454   1.968       .  S
Zn1452     O1457   2.033       .  S
Zn1452     O1460   2.019       .  S
Zn1452     O1463   2.020       .  S
Zn1453     O1454   1.975       .  S
Zn1453     O1461   2.024       .  S
Zn1453     O1464   2.035       .  S
Zn1453     O1465   2.034       .  S
O1455      C1467   1.270       .  A
O1456      C1468   1.272       .  A
O1457      C1469   1.273       .  A
O1458      C1467   1.273       .  A
O1459      C1469   1.271       .  A
O1460      C1468   1.272       .  A
O1461      C1470   1.273       .  A
O1462      C1471   1.271       .  A
O1463      C1470   1.272       .  A
O1464      C1471   1.274       .  A
O1465      C1472   1.274       .  A
O1466      C1472   1.270       .  A
C1467      C1510   1.437       .  S
C1468      C1482   1.434       .  S
C1469      C1846   1.440       .  S
C1470      C2378   1.437       .  S
C1471      C1566   1.439       .  S
C1472      C1496   1.434       .  S
C1473      C1481   1.439       .  S
C1473      C1474   1.401       .  A
C1473      C1478   1.401       .  A
C1474      C1475   1.398       .  A
C1474      H1483   1.084       .  S
C1475      C1476   1.400       .  A
C1475      H1484   1.084       .  S
C1476      C1479   1.438       .  S
C1476      C1477   1.402       .  A
C1477      C1478   1.399       .  A
C1477      H1485   1.084       .  S
C1478      H1486   1.083       .  S
C1479      C1480   1.205       .  T
C1481      C1482   1.205       .  T
C1487      C1495   1.439       .  S
C1487      C1488   1.402       .  A
C1487      C1492   1.401       .  A
C1488      C1489   1.398       .  A
C1488      H1497   1.084       .  S
C1489      C1490   1.401       .  A
C1489      H1498   1.083       .  S
C1490      C1493   1.439       .  S
C1490      C1491   1.402       .  A
C1491      C1492   1.399       .  A
C1491      H1499   1.084       .  S
C1492      H1500   1.083       .  S
C1493      C1494   1.205       .  T
C1495      C1496   1.205       .  T
C1501      C1509   1.442       .  S
C1501      C1502   1.403       .  A
C1501      C1506   1.401       .  A
C1502      C1503   1.400       .  A
C1502      H1511   1.083       .  S
C1503      C1504   1.401       .  A
C1503      H1512   1.083       .  S
C1504      C1507   1.441       .  S
C1504      C1505   1.402       .  A
C1505      C1506   1.399       .  A
C1505      H1513   1.084       .  S
C1506      H1514   1.083       .  S
C1507      C1508   1.207       .  T
C1509      C1510   1.207       .  T
C1515      C1523   1.436       .  S
C1515      C1516   1.402       .  A
C1515      C1520   1.400       .  A
C1516      C1517   1.398       .  A
C1516      H1525   1.084       .  S
C1517      C1518   1.400       .  A
C1517      H1526   1.083       .  S
C1518      C1521   1.437       .  S
C1518      C1519   1.402       .  A
C1519      C1520   1.398       .  A
C1519      H1527   1.084       .  S
C1520      H1528   1.084       .  S
C1521      C1522   1.204       .  T
C1523      C1524   1.204       .  T
C1529      C1537   1.439       .  S
C1529      C1530   1.402       .  A
C1529      C1534   1.400       .  A
C1530      C1531   1.399       .  A
C1530      H1539   1.084       .  S
C1531      C1532   1.400       .  A
C1531      H1540   1.083       .  S
C1532      C1535   1.439       .  S
C1532      C1533   1.402       .  A
C1533      C1534   1.399       .  A
C1533      H1541   1.084       .  S
C1534      H1542   1.083       .  S
C1535      C1536   1.205       .  T
C1537      C1538   1.205       .  T
C1543      C1551   1.443       .  S
C1543      C1544   1.401       .  A
C1543      C1548   1.403       .  A
C1544      C1545   1.400       .  A
C1544      H1553   1.083       .  S
C1545      C1546   1.402       .  A
C1545      H1554   1.083       .  S
C1546      C1549   1.442       .  S
C1546      C1547   1.401       .  A
C1547      C1548   1.401       .  A
C1547      H1555   1.083   1_455  S
C1548      H1556   1.083       .  S
C1549      C1550   1.207       .  T
C1551      C1552   1.208       .  T
C1557      C1565   1.443       .  S
C1557      C1558   1.402       .  A
C1557      C1562   1.402       .  A
C1558      C1559   1.401       .  A
C1558      H1567   1.084       .  S
C1559      C1560   1.403       .  A
C1559      H1568   1.083       .  S
C1560      C1563   1.443       .  S
C1560      C1561   1.401       .  A
C1561      C1562   1.400       .  A
C1561      H1569   1.084       .  S
C1562      H1570   1.083       .  S
C1563      C1564   1.207       .  T
C1565      C1566   1.208       .  T
C1571      C1579   1.438       .  S
C1571      C1572   1.401       .  A
C1571      C1576   1.401   1_565  A
C1572      C1573   1.399       .  A
C1572      H1581   1.084       .  S
C1573      C1574   1.401   1_565  A
C1573      H1582   1.084       .  S
C1574      C1577   1.439       .  S
C1574      C1575   1.401       .  A
C1575      C1576   1.398       .  A
C1575      H1583   1.083       .  S
C1576      H1584   1.084       .  S
C1577      C1578   1.205       .  T
C1579      C1580   1.205       .  T
C1585      C1593   1.440       .  S
C1585      C1586   1.401       .  A
C1585      C1590   1.401   1_545  A
C1586      C1587   1.399   1_455  A
C1586      H1595   1.084       .  S
C1587      C1588   1.401   1_545  A
C1587      H1596   1.084       .  S
C1588      C1591   1.440       .  S
C1588      C1589   1.402       .  A
C1589      C1590   1.399   1_655  A
C1589      H1597   1.083       .  S
C1590      H1598   1.084       .  S
C1591      C1592   1.206       .  T
C1593      C1594   1.206       .  T
C1599      C1607   1.442       .  S
C1599      C1600   1.401       .  A
C1599      C1604   1.402       .  A
C1600      C1601   1.400       .  A
C1600      H1609   1.083       .  S
C1601      C1602   1.402       .  A
C1601      H1610   1.084       .  S
C1602      C1605   1.443       .  S
C1602      C1603   1.402       .  A
C1603      C1604   1.400       .  A
C1603      H1611   1.083       .  S
C1604      H1612   1.084       .  S
C1605      C1606   1.208       .  T
C1607      C1608   1.207       .  T
C1613      C1621   1.442       .  S
C1613      C1614   1.402       .  A
C1613      C1618   1.401       .  A
C1614      C1615   1.400       .  A
C1614      H1623   1.084       .  S
C1615      C1616   1.401       .  A
C1615      H1624   1.083       .  S
C1616      C1619   1.441       .  S
C1616      C1617   1.402       .  A
C1617      C1618   1.399       .  A
C1617      H1625   1.084       .  S
C1618      H1626   1.083       .  S
C1619      C1620   1.207       .  T
C1621      C1622   1.207       .  T
C1627      C1635   1.439       .  S
C1627      C1628   1.401   1_565  A
C1627      C1632   1.402       .  A
C1628      C1629   1.399       .  A
C1628      H1637   1.083       .  S
C1629      C1630   1.402   1_545  A
C1629      H1638   1.083       .  S
C1630      C1633   1.438       .  S
C1630      C1631   1.400       .  A
C1631      C1632   1.398       .  A
C1631      H1639   1.083       .  S
C1632      H1640   1.083       .  S
C1633      C1634   1.205       .  T
C1635      C1636   1.205       .  T
C1641      C1649   1.437       .  S
C1641      C1642   1.402   1_545  A
C1641      C1646   1.400       .  A
C1642      C1643   1.397       .  A
C1642      H1651   1.084       .  S
C1643      C1644   1.399       .  A
C1643      H1652   1.084       .  S
C1644      C1647   1.437       .  S
C1644      C1645   1.402   1_565  A
C1645      C1646   1.398       .  A
C1645      H1653   1.084       .  S
C1646      H1654   1.083       .  S
C1647      C1648   1.204       .  T
C1649      C1650   1.204       .  T
C1655      C1663   1.438       .  S
C1655      C1656   1.401       .  A
C1655      C1660   1.401   1_545  A
C1656      C1657   1.398       .  A
C1656      H1665   1.084       .  S
C1657      C1658   1.401   1_545  A
C1657      H1666   1.084       .  S
C1658      C1661   1.439       .  S
C1658      C1659   1.401       .  A
C1659      C1660   1.399       .  A
C1659      H1667   1.083       .  S
C1660      H1668   1.083       .  S
C1661      C1662   1.205       .  T
C1663      C1664   1.205   1_455  T
C1669      C1677   1.442       .  S
C1669      C1670   1.401       .  A
C1669      C1674   1.402       .  A
C1670      C1671   1.400       .  A
C1670      H1679   1.083       .  S
C1671      C1672   1.402       .  A
C1671      H1680   1.084       .  S
C1672      C1675   1.442       .  S
C1672      C1673   1.401       .  A
C1673      C1674   1.400       .  A
C1673      H1681   1.083       .  S
C1674      H1682   1.084       .  S
C1675      C1676   1.207       .  T
C1677      C1678   1.207       .  T
C1683      C1691   1.443       .  S
C1683      C1684   1.401   1_565  A
C1683      C1688   1.403       .  A
C1684      C1685   1.400       .  A
C1684      H1693   1.083       .  S
C1685      C1686   1.402   1_545  A
C1685      H1694   1.083       .  S
C1686      C1689   1.443       .  S
C1686      C1687   1.401       .  A
C1687      C1688   1.400       .  A
C1687      H1695   1.083       .  S
C1688      H1696   1.083       .  S
C1689      C1690   1.208       .  T
C1691      C1692   1.208       .  T
C1697      C1705   1.441       .  S
C1697      C1698   1.403       .  A
C1697      C1702   1.401       .  A
C1698      C1699   1.400       .  A
C1698      H1707   1.084       .  S
C1699      C1700   1.401       .  A
C1699      H1708   1.083       .  S
C1700      C1703   1.441       .  S
C1700      C1701   1.402       .  A
C1701      C1702   1.399       .  A
C1701      H1709   1.084       .  S
C1702      H1710   1.083       .  S
C1703      C1704   1.206       .  T
C1705      C1706   1.207       .  T
C1711      C1719   1.443       .  S
C1711      C1712   1.403       .  A
C1711      C1716   1.401       .  A
C1712      C1713   1.400       .  A
C1712      H1721   1.083       .  S
C1713      C1714   1.401       .  A
C1713      H1722   1.083       .  S
C1714      C1717   1.444       .  S
C1714      C1715   1.403       .  A
C1715      C1716   1.400       .  A
C1715      H1723   1.083       .  S
C1716      H1724   1.083       .  S
C1717      C1718   1.208       .  T
C1719      C1720   1.208       .  T
C1725      C1733   1.437       .  S
C1725      C1726   1.401       .  A
C1725      C1730   1.401       .  A
C1726      C1727   1.398       .  A
C1726      H1735   1.084       .  S
C1727      C1728   1.401       .  A
C1727      H1736   1.084       .  S
C1728      C1731   1.436       .  S
C1728      C1729   1.401       .  A
C1729      C1730   1.398       .  A
C1729      H1737   1.084       .  S
C1730      H1738   1.084       .  S
C1731      C1732   1.204       .  T
C1733      C1734   1.204       .  T
C1739      C1747   1.438       .  S
C1739      C1740   1.400       .  A
C1739      C1744   1.402       .  A
C1740      C1741   1.398       .  A
C1740      H1749   1.084       .  S
C1741      C1742   1.402       .  A
C1741      H1750   1.084       .  S
C1742      C1745   1.438       .  S
C1742      C1743   1.400       .  A
C1743      C1744   1.398       .  A
C1743      H1751   1.083       .  S
C1744      H1752   1.084       .  S
C1745      C1746   1.205       .  T
C1747      C1748   1.205   1_455  T
C1753      C1761   1.442       .  S
C1753      C1754   1.402       .  A
C1753      C1758   1.401       .  A
C1754      C1755   1.400       .  A
C1754      H1763   1.084       .  S
C1755      C1756   1.401       .  A
C1755      H1764   1.083       .  S
C1756      C1759   1.442       .  S
C1756      C1757   1.402       .  A
C1757      C1758   1.400       .  A
C1757      H1765   1.083       .  S
C1758      H1766   1.083       .  S
C1759      C1760   1.207       .  T
C1761      C1762   1.207       .  T
C1767      C1775   1.440       .  S
C1767      C1768   1.402       .  A
C1767      C1772   1.401       .  A
C1768      C1769   1.399       .  A
C1768      H1777   1.084       .  S
C1769      C1770   1.401       .  A
C1769      H1778   1.083       .  S
C1770      C1773   1.440       .  S
C1770      C1771   1.402       .  A
C1771      C1772   1.399       .  A
C1771      H1779   1.084       .  S
C1772      H1780   1.083       .  S
C1773      C1774   1.206       .  T
C1775      C1776   1.206       .  T
C1781      C1789   1.442       .  S
C1781      C1782   1.402       .  A
C1781      C1786   1.401       .  A
C1782      C1783   1.400       .  A
C1782      H1791   1.083       .  S
C1783      C1784   1.401       .  A
C1783      H1792   1.083       .  S
C1784      C1787   1.441       .  S
C1784      C1785   1.402       .  A
C1785      C1786   1.400       .  A
C1785      H1793   1.083       .  S
C1786      H1794   1.083       .  S
C1787      C1788   1.206       .  T
C1789      C1790   1.207       .  T
C1795      C1803   1.439       .  S
C1795      C1796   1.402       .  A
C1795      C1800   1.400       .  A
C1796      C1797   1.399       .  A
C1796      H1805   1.084       .  S
C1797      C1798   1.401       .  A
C1797      H1806   1.083       .  S
C1798      C1801   1.438       .  S
C1798      C1799   1.402       .  A
C1799      C1800   1.398       .  A
C1799      H1807   1.084       .  S
C1800      H1808   1.083       .  S
C1801      C1802   1.205       .  T
C1803      C1804   1.205       .  T
C1809      C1817   1.440       .  S
C1809      C1810   1.401       .  A
C1809      C1814   1.401       .  A
C1810      C1811   1.399   1_655  A
C1810      H1819   1.084       .  S
C1811      C1812   1.401       .  A
C1811      H1820   1.084       .  S
C1812      C1815   1.439       .  S
C1812      C1813   1.401       .  A
C1813      C1814   1.399   1_455  A
C1813      H1821   1.084       .  S
C1814      H1822   1.083       .  S
C1815      C1816   1.205       .  T
C1817      C1818   1.206       .  T
C1823      C1831   1.441       .  S
C1823      C1824   1.401       .  A
C1823      C1828   1.402       .  A
C1824      C1825   1.400       .  A
C1824      H1833   1.083       .  S
C1825      C1826   1.402       .  A
C1825      H1834   1.083       .  S
C1826      C1829   1.441       .  S
C1826      C1827   1.401       .  A
C1827      C1828   1.400       .  A
C1827      H1835   1.083       .  S
C1828      H1836   1.083       .  S
C1829      C1830   1.207       .  T
C1831      C1832   1.207       .  T
C1837      C1845   1.444       .  S
C1837      C1838   1.402       .  A
C1837      C1842   1.402       .  A
C1838      C1839   1.400       .  A
C1838      H1847   1.083       .  S
C1839      C1840   1.402       .  A
C1839      H1848   1.083       .  S
C1840      C1843   1.444       .  S
C1840      C1841   1.403       .  A
C1841      C1842   1.401       .  A
C1841      H1849   1.083       .  S
C1842      H1850   1.083       .  S
C1843      C1844   1.208       .  T
C1845      C1846   1.209       .  T
C1851      C1859   1.443       .  S
C1851      C1852   1.403       .  A
C1851      C1856   1.401       .  A
C1852      C1853   1.400       .  A
C1852      H1861   1.084       .  S
C1853      C1854   1.401       .  A
C1853      H1862   1.083       .  S
C1854      C1857   1.444       .  S
C1854      C1855   1.403       .  A
C1855      C1856   1.401       .  A
C1855      H1863   1.084       .  S
C1856      H1864   1.083       .  S
C1857      C1858   1.208       .  T
C1859      C1860   1.208       .  T
C1865      C1873   1.440       .  S
C1865      C1866   1.401       .  A
C1865      C1870   1.401       .  A
C1866      C1867   1.399       .  A
C1866      H1875   1.083       .  S
C1867      C1868   1.401       .  A
C1867      H1876   1.084       .  S
C1868      C1871   1.440       .  S
C1868      C1869   1.402       .  A
C1869      C1870   1.400       .  A
C1869      H1877   1.083       .  S
C1870      H1878   1.083       .  S
C1871      C1872   1.206       .  T
C1873      C1874   1.206       .  T
C1879      C1887   1.438       .  S
C1879      C1880   1.401       .  A
C1879      C1884   1.401       .  A
C1880      C1881   1.398       .  A
C1880      H1889   1.084       .  S
C1881      C1882   1.401       .  A
C1881      H1890   1.084       .  S
C1882      C1885   1.437       .  S
C1882      C1883   1.401       .  A
C1883      C1884   1.398       .  A
C1883      H1891   1.084       .  S
C1884      H1892   1.084       .  S
C1885      C1886   1.204       .  T
C1887      C1888   1.205       .  T
C1893      C1901   1.438       .  S
C1893      C1894   1.401       .  A
C1893      C1898   1.401       .  A
C1894      C1895   1.398       .  A
C1894      H1903   1.084       .  S
C1895      C1896   1.401       .  A
C1895      H1904   1.084       .  S
C1896      C1899   1.437       .  S
C1896      C1897   1.401       .  A
C1897      C1898   1.398       .  A
C1897      H1905   1.084       .  S
C1898      H1906   1.084       .  S
C1899      C1900   1.204       .  T
C1901      C1902   1.205       .  T
C1907      C1915   1.443       .  S
C1907      C1908   1.401       .  A
C1907      C1912   1.403       .  A
C1908      C1909   1.400       .  A
C1908      H1917   1.083   1_655  S
C1909      C1910   1.403       .  A
C1909      H1918   1.083       .  S
C1910      C1913   1.443       .  S
C1910      C1911   1.401       .  A
C1911      C1912   1.400       .  A
C1911      H1919   1.083       .  S
C1912      H1920   1.083       .  S
C1913      C1914   1.208       .  T
C1915      C1916   1.208       .  T
C1921      C1929   1.440       .  S
C1921      C1922   1.401       .  A
C1921      C1926   1.402       .  A
C1922      C1923   1.399       .  A
C1922      H1931   1.083       .  S
C1923      C1924   1.402       .  A
C1923      H1932   1.083       .  S
C1924      C1927   1.440       .  S
C1924      C1925   1.401       .  A
C1925      C1926   1.399       .  A
C1925      H1933   1.083       .  S
C1926      H1934   1.083       .  S
C1927      C1928   1.206       .  T
C1929      C1930   1.206       .  T
C1935      C1943   1.444       .  S
C1935      C1936   1.401       .  A
C1935      C1940   1.403       .  A
C1936      C1937   1.400       .  A
C1936      H1945   1.083       .  S
C1937      C1938   1.403       .  A
C1937      H1946   1.083       .  S
C1938      C1941   1.444       .  S
C1938      C1939   1.401       .  A
C1939      C1940   1.401       .  A
C1939      H1947   1.083       .  S
C1940      H1948   1.083       .  S
C1941      C1942   1.208       .  T
C1943      C1944   1.208       .  T
C1949      C1957   1.442       .  S
C1949      C1950   1.401       .  A
C1949      C1954   1.402       .  A
C1950      C1951   1.400       .  A
C1950      H1959   1.083       .  S
C1951      C1952   1.402       .  A
C1951      H1960   1.084       .  S
C1952      C1955   1.442       .  S
C1952      C1953   1.401       .  A
C1953      C1954   1.400       .  A
C1953      H1961   1.083       .  S
C1954      H1962   1.084       .  S
C1955      C1956   1.207       .  T
C1957      C1958   1.208       .  T
C1963      C1971   1.441       .  S
C1963      C1964   1.402       .  A
C1963      C1968   1.401       .  A
C1964      C1965   1.400       .  A
C1964      H1973   1.084       .  S
C1965      C1966   1.401       .  A
C1965      H1974   1.083       .  S
C1966      C1969   1.441       .  S
C1966      C1967   1.402       .  A
C1967      C1968   1.399       .  A
C1967      H1975   1.084       .  S
C1968      H1976   1.083   1_455  S
C1969      C1970   1.206       .  T
C1971      C1972   1.206       .  T
C1977      C1985   1.437       .  S
C1977      C1978   1.401       .  A
C1977      C1982   1.401       .  A
C1978      C1979   1.398       .  A
C1978      H1987   1.084       .  S
C1979      C1980   1.401       .  A
C1979      H1988   1.083       .  S
C1980      C1983   1.437       .  S
C1980      C1981   1.401       .  A
C1981      C1982   1.398       .  A
C1981      H1989   1.084       .  S
C1982      H1990   1.084       .  S
C1983      C1984   1.204       .  T
C1985      C1986   1.204       .  T
C1991      C1999   1.439       .  S
C1991      C1992   1.403       .  A
C1991      C1996   1.400       .  A
C1992      C1993   1.399       .  A
C1992      H2001   1.084       .  S
C1993      C1994   1.400       .  A
C1993      H2002   1.084       .  S
C1994      C1997   1.439       .  S
C1994      C1995   1.402       .  A
C1995      C1996   1.398       .  A
C1995      H2003   1.084       .  S
C1996      H2004   1.084       .  S
C1997      C1998   1.205       .  T
C1999      C2000   1.205       .  T
C2005      C2013   1.445       .  S
C2005      C2006   1.402       .  A
C2005      C2010   1.403       .  A
C2006      C2007   1.401       .  A
C2006      H2015   1.083       .  S
C2007      C2008   1.403       .  A
C2007      H2016   1.084       .  S
C2008      C2011   1.444       .  S
C2008      C2009   1.401       .  A
C2009      C2010   1.401       .  A
C2009      H2017   1.083       .  S
C2010      H2018   1.084       .  S
C2011      C2012   1.208       .  T
C2013      C2014   1.209       .  T
C2019      C2027   1.442       .  S
C2019      C2020   1.401       .  A
C2019      C2024   1.402       .  A
C2020      C2021   1.400       .  A
C2020      H2029   1.083       .  S
C2021      C2022   1.402       .  A
C2021      H2030   1.083       .  S
C2022      C2025   1.442       .  S
C2022      C2023   1.401       .  A
C2023      C2024   1.400       .  A
C2023      H2031   1.083       .  S
C2024      H2032   1.083       .  S
C2025      C2026   1.207       .  T
C2027      C2028   1.207       .  T
C2033      C2041   1.438       .  S
C2033      C2034   1.400       .  A
C2033      C2038   1.402       .  A
C2034      C2035   1.398       .  A
C2034      H2043   1.083       .  S
C2035      C2036   1.402   1_545  A
C2035      H2044   1.084       .  S
C2036      C2039   1.437       .  S
C2036      C2037   1.400   1_565  A
C2037      C2038   1.398       .  A
C2037      H2045   1.083   1_545  S
C2038      H2046   1.084       .  S
C2039      C2040   1.204       .  T
C2041      C2042   1.205       .  T
C2047      C2055   1.438   1_545  S
C2047      C2048   1.402       .  A
C2047      C2052   1.400   1_545  A
C2048      C2049   1.398       .  A
C2048      H2057   1.084       .  S
C2049      C2050   1.400       .  A
C2049      H2058   1.084       .  S
C2050      C2053   1.438       .  S
C2050      C2051   1.402   1_545  A
C2051      C2052   1.398       .  A
C2051      H2059   1.084       .  S
C2052      H2060   1.083       .  S
C2053      C2054   1.204       .  T
C2055      C2056   1.205       .  T
C2061      C2069   1.439       .  S
C2061      C2062   1.401       .  A
C2061      C2066   1.401   1_565  A
C2062      C2063   1.399   1_556  A
C2062      H2071   1.084       .  S
C2063      C2064   1.402       .  A
C2063      H2072   1.084       .  S
C2064      C2067   1.439       .  S
C2064      C2065   1.401   1_565  A
C2065      C2066   1.398   1_554  A
C2065      H2073   1.084       .  S
C2066      H2074   1.084       .  S
C2067      C2068   1.206       .  T
C2069      C2070   1.206   1_565  T
C2075      C2083   1.444       .  S
C2075      C2076   1.402   1_545  A
C2075      C2080   1.402       .  A
C2076      C2077   1.400       .  A
C2076      H2085   1.083       .  S
C2077      C2078   1.402   1_565  A
C2077      H2086   1.083       .  S
C2078      C2081   1.443       .  S
C2078      C2079   1.402       .  A
C2079      C2080   1.401       .  A
C2079      H2087   1.083       .  S
C2080      H2088   1.083       .  S
C2081      C2082   1.208       .  T
C2083      C2084   1.208       .  T
C2089      C2097   1.444       .  S
C2089      C2090   1.402   1_565  A
C2089      C2094   1.402       .  A
C2090      C2091   1.400   1_554  A
C2090      H2099   1.083       .  S
C2091      C2092   1.402   1_545  A
C2091      H2100   1.083       .  S
C2092      C2095   1.444   1_565  S
C2092      C2093   1.402       .  A
C2093      C2094   1.401   1_556  A
C2093      H2101   1.083       .  S
C2094      H2102   1.083       .  S
C2095      C2096   1.208       .  T
C2097      C2098   1.208       .  T
C2103      C2111   1.438   1_545  S
C2103      C2104   1.401   1_545  A
C2103      C2108   1.401       .  A
C2104      C2105   1.398   1_655  A
C2104      H2113   1.084       .  S
C2105      C2106   1.401   1_565  A
C2105      H2114   1.084       .  S
C2106      C2109   1.438       .  S
C2106      C2107   1.401       .  A
C2107      C2108   1.398   1_455  A
C2107      H2115   1.084       .  S
C2108      H2116   1.084       .  S
C2109      C2110   1.205       .  T
C2111      C2112   1.205       .  T
C2117      C2125   1.437       .  S
C2117      C2118   1.401   1_545  A
C2117      C2122   1.401       .  A
C2118      C2119   1.398       .  A
C2118      H2127   1.084       .  S
C2119      C2120   1.401       .  A
C2119      H2128   1.084       .  S
C2120      C2123   1.437       .  S
C2120      C2121   1.401   1_565  A
C2121      C2122   1.398       .  A
C2121      H2129   1.084       .  S
C2122      H2130   1.084       .  S
C2123      C2124   1.204       .  T
C2125      C2126   1.204       .  T
C2131      C2139   1.442       .  S
C2131      C2132   1.401       .  A
C2131      C2136   1.402   1_545  A
C2132      C2133   1.400       .  A
C2132      H2141   1.083       .  S
C2133      C2134   1.402       .  A
C2133      H2142   1.084       .  S
C2134      C2137   1.442       .  S
C2134      C2135   1.401       .  A
C2135      C2136   1.400   1_545  A
C2135      H2143   1.083   1_545  S
C2136      H2144   1.084       .  S
C2137      C2138   1.207       .  T
C2139      C2140   1.207       .  T
C2145      C2153   1.442       .  S
C2145      C2146   1.403       .  A
C2145      C2150   1.401       .  A
C2146      C2147   1.400       .  A
C2146      H2155   1.083       .  S
C2147      C2148   1.401       .  A
C2147      H2156   1.083       .  S
C2148      C2151   1.443       .  S
C2148      C2149   1.403       .  A
C2149      C2150   1.400       .  A
C2149      H2157   1.083       .  S
C2150      H2158   1.084   1_455  S
C2151      C2152   1.208       .  T
C2153      C2154   1.207       .  T
C2159      C2167   1.439       .  S
C2159      C2160   1.402       .  A
C2159      C2164   1.401       .  A
C2160      C2161   1.399       .  A
C2160      H2169   1.084       .  S
C2161      C2162   1.401       .  A
C2161      H2170   1.084       .  S
C2162      C2165   1.439       .  S
C2162      C2163   1.401       .  A
C2163      C2164   1.399       .  A
C2163      H2171   1.084       .  S
C2164      H2172   1.084       .  S
C2165      C2166   1.206       .  T
C2167      C2168   1.206       .  T
C2173      C2181   1.438       .  S
C2173      C2174   1.401       .  A
C2173      C2178   1.401       .  A
C2174      C2175   1.399       .  A
C2174      H2183   1.084       .  S
C2175      C2176   1.401       .  A
C2175      H2184   1.084       .  S
C2176      C2179   1.438       .  S
C2176      C2177   1.401       .  A
C2177      C2178   1.398       .  A
C2177      H2185   1.084       .  S
C2178      H2186   1.084       .  S
C2179      C2180   1.205       .  T
C2181      C2182   1.205       .  T
C2187      C2195   1.443       .  S
C2187      C2188   1.403       .  A
C2187      C2192   1.401       .  A
C2188      C2189   1.401       .  A
C2188      H2197   1.083       .  S
C2189      C2190   1.401       .  A
C2189      H2198   1.083       .  S
C2190      C2193   1.444       .  S
C2190      C2191   1.403       .  A
C2191      C2192   1.400       .  A
C2191      H2199   1.083       .  S
C2192      H2200   1.084       .  S
C2193      C2194   1.209       .  T
C2195      C2196   1.208       .  T
C2201      C2209   1.439       .  S
C2201      C2202   1.401       .  A
C2201      C2206   1.401       .  A
C2202      C2203   1.399   1_554  A
C2202      H2211   1.083       .  S
C2203      C2204   1.401       .  A
C2203      H2212   1.083       .  S
C2204      C2207   1.439       .  S
C2204      C2205   1.401       .  A
C2205      C2206   1.399   1_556  A
C2205      H2213   1.083       .  S
C2206      H2214   1.083       .  S
C2207      C2208   1.205       .  T
C2209      C2210   1.205       .  T
C2215      C2223   1.442       .  S
C2215      C2216   1.402       .  A
C2215      C2220   1.402       .  A
C2216      C2217   1.401       .  A
C2216      H2225   1.083       .  S
C2217      C2218   1.403       .  A
C2217      H2226   1.083       .  S
C2218      C2221   1.441       .  S
C2218      C2219   1.400       .  A
C2219      C2220   1.399       .  A
C2219      H2227   1.084       .  S
C2220      H2228   1.083       .  S
C2221      C2222   1.207       .  T
C2223      C2224   1.208       .  T
C2229      C2237   1.442       .  S
C2229      C2230   1.401       .  A
C2229      C2234   1.402       .  A
C2230      C2231   1.400       .  A
C2230      H2239   1.083       .  S
C2231      C2232   1.402       .  A
C2231      H2240   1.083       .  S
C2232      C2235   1.442       .  S
C2232      C2233   1.401       .  A
C2233      C2234   1.400       .  A
C2233      H2241   1.083       .  S
C2234      H2242   1.083       .  S
C2235      C2236   1.207       .  T
C2237      C2238   1.207       .  T
C2243      C2251   1.444       .  S
C2243      C2244   1.402       .  A
C2243      C2248   1.402       .  A
C2244      C2245   1.401   1_554  A
C2244      H2253   1.083       .  S
C2245      C2246   1.402       .  A
C2245      H2254   1.083       .  S
C2246      C2249   1.444       .  S
C2246      C2247   1.402       .  A
C2247      C2248   1.401   1_556  A
C2247      H2255   1.083       .  S
C2248      H2256   1.083       .  S
C2249      C2250   1.209       .  T
C2251      C2252   1.209       .  T
C2257      C2265   1.440       .  S
C2257      C2258   1.402       .  A
C2257      C2262   1.400       .  A
C2258      C2259   1.399       .  A
C2258      H2267   1.084       .  S
C2259      C2260   1.400       .  A
C2259      H2268   1.083       .  S
C2260      C2263   1.440       .  S
C2260      C2261   1.403       .  A
C2261      C2262   1.399       .  A
C2261      H2269   1.084       .  S
C2262      H2270   1.083       .  S
C2263      C2264   1.206       .  T
C2265      C2266   1.206       .  T
C2271      C2279   1.435       .  S
C2271      C2272   1.401       .  A
C2271      C2276   1.400       .  A
C2272      C2273   1.397       .  A
C2272      H2281   1.084       .  S
C2273      C2274   1.400       .  A
C2273      H2282   1.083       .  S
C2274      C2277   1.435       .  S
C2274      C2275   1.402       .  A
C2275      C2276   1.398       .  A
C2275      H2283   1.084       .  S
C2276      H2284   1.084       .  S
C2277      C2278   1.203       .  T
C2279      C2280   1.203       .  T
C2285      C2293   1.447       .  S
C2285      C2286   1.403       .  A
C2285      C2290   1.402       .  A
C2286      C2287   1.402       .  A
C2286      H2295   1.083       .  S
C2287      C2288   1.402       .  A
C2287      H2296   1.083       .  S
C2288      C2291   1.446       .  S
C2288      C2289   1.403       .  A
C2289      C2290   1.401       .  A
C2289      H2297   1.083       .  S
C2290      H2298   1.083       .  S
C2291      C2292   1.210       .  T
C2293      C2294   1.210       .  T
C2299      C2307   1.441       .  S
C2299      C2300   1.402       .  A
C2299      C2304   1.401       .  A
C2300      C2301   1.400       .  A
C2300      H2309   1.084       .  S
C2301      C2302   1.401       .  A
C2301      H2310   1.083       .  S
C2302      C2305   1.441       .  S
C2302      C2303   1.402       .  A
C2303      C2304   1.400       .  A
C2303      H2311   1.084       .  S
C2304      H2312   1.083       .  S
C2305      C2306   1.207       .  T
C2307      C2308   1.207       .  T
C2313      C2321   1.441       .  S
C2313      C2314   1.401       .  A
C2313      C2318   1.402       .  A
C2314      C2315   1.400       .  A
C2314      H2323   1.083       .  S
C2315      C2316   1.402       .  A
C2315      H2324   1.083       .  S
C2316      C2319   1.442       .  S
C2316      C2317   1.401       .  A
C2317      C2318   1.399       .  A
C2317      H2325   1.083       .  S
C2318      H2326   1.084       .  S
C2319      C2320   1.207       .  T
C2321      C2322   1.207       .  T
C2327      C2335   1.442       .  S
C2327      C2328   1.402       .  A
C2327      C2332   1.401       .  A
C2328      C2329   1.400       .  A
C2328      H2337   1.084       .  S
C2329      C2330   1.401       .  A
C2329      H2338   1.083       .  S
C2330      C2333   1.443       .  S
C2330      C2331   1.402       .  A
C2331      C2332   1.400       .  A
C2331      H2339   1.083       .  S
C2332      H2340   1.083       .  S
C2333      C2334   1.208       .  T
C2335      C2336   1.207       .  T
C2341      C2349   1.438       .  S
C2341      C2342   1.402       .  A
C2341      C2346   1.400       .  A
C2342      C2343   1.399   1_455  A
C2342      H2351   1.084       .  S
C2343      C2344   1.402       .  A
C2343      H2352   1.084       .  S
C2344      C2347   1.438       .  S
C2344      C2345   1.401       .  A
C2345      C2346   1.397   1_655  A
C2345      H2353   1.084       .  S
C2346      H2354   1.084       .  S
C2347      C2348   1.205       .  T
C2349      C2350   1.205       .  T
C2355      C2363   1.438       .  S
C2355      C2356   1.402       .  A
C2355      C2360   1.400       .  A
C2356      C2357   1.399       .  A
C2356      H2365   1.084       .  S
C2357      C2358   1.401       .  A
C2357      H2366   1.083       .  S
C2358      C2361   1.438       .  S
C2358      C2359   1.401       .  A
C2359      C2360   1.397       .  A
C2359      H2367   1.084       .  S
C2360      H2368   1.083       .  S
C2361      C2362   1.205       .  T
C2363      C2364   1.205       .  T
C2369      C2377   1.442       .  S
C2369      C2370   1.402       .  A
C2369      C2374   1.402       .  A
C2370      C2371   1.400   1_554  A
C2370      H2379   1.083       .  S
C2371      C2372   1.402       .  A
C2371      H2380   1.083       .  S
C2372      C2375   1.442       .  S
C2372      C2373   1.401       .  A
C2373      C2374   1.400   1_556  A
C2373      H2381   1.083       .  S
C2374      H2382   1.083       .  S
C2375      C2376   1.207       .  T
C2377      C2378   1.207       .  T
C2383      C2391   1.440       .  S
C2383      C2384   1.402       .  A
C2383      C2388   1.401       .  A
C2384      C2385   1.398       .  A
C2384      H2393   1.083       .  S
C2385      C2386   1.401       .  A
C2385      H2394   1.084       .  S
C2386      C2389   1.440       .  S
C2386      C2387   1.402       .  A
C2387      C2388   1.400       .  A
C2387      H2395   1.083       .  S
C2388      H2396   1.083       .  S
C2389      C2390   1.206       .  T
C2391      C2392   1.206       .  T
C2397      C2405   1.440       .  S
C2397      C2398   1.402       .  A
C2397      C2402   1.400       .  A
C2398      C2399   1.400       .  A
C2398      H2407   1.083       .  S
C2399      C2400   1.401       .  A
C2399      H2408   1.083       .  S
C2400      C2403   1.440       .  S
C2400      C2401   1.401       .  A
C2401      C2402   1.398       .  A
C2401      H2409   1.083       .  S
C2402      H2410   1.083       .  S
C2403      C2404   1.206       .  T
C2405      C2406   1.206       .  T
C2411      C2419   1.442       .  S
C2411      C2412   1.402       .  A
C2411      C2416   1.402       .  A
C2412      C2413   1.400   1_554  A
C2412      H2421   1.083       .  S
C2413      C2414   1.402       .  A
C2413      H2422   1.083       .  S
C2414      C2417   1.442       .  S
C2414      C2415   1.402       .  A
C2415      C2416   1.400   1_556  A
C2415      H2423   1.083       .  S
C2416      H2424   1.083       .  S
C2417      C2418   1.208       .  T
C2419      C2420   1.207       .  T
C2425      C2433   1.439       .  S
C2425      C2426   1.401       .  A
C2425      C2430   1.402       .  A
C2426      C2427   1.398       .  A
C2426      H2435   1.083       .  S
C2427      C2428   1.401       .  A
C2427      H2436   1.084       .  S
C2428      C2431   1.438       .  S
C2428      C2429   1.401       .  A
C2429      C2430   1.399       .  A
C2429      H2437   1.083       .  S
C2430      H2438   1.084       .  S
C2431      C2432   1.205       .  T
C2433      C2434   1.205       .  T
C2439      C2447   1.439       .  S
C2439      C2440   1.401       .  A
C2439      C2444   1.401       .  A
C2440      C2441   1.399       .  A
C2440      H2449   1.084       .  S
C2441      C2442   1.401       .  A
C2441      H2450   1.083       .  S
C2442      C2445   1.439       .  S
C2442      C2443   1.401       .  A
C2443      C2444   1.398       .  A
C2443      H2451   1.084       .  S
C2444      H2452   1.084       .  S
C2445      C2446   1.205       .  T
C2447      C2448   1.205       .  T
C2453      C2461   1.437       .  S
C2453      C2454   1.400       .  A
C2453      C2458   1.402       .  A
C2454      C2455   1.398       .  A
C2454      H2463   1.084       .  S
C2455      C2456   1.401       .  A
C2455      H2464   1.084       .  S
C2456      C2459   1.437       .  S
C2456      C2457   1.400       .  A
C2457      C2458   1.398       .  A
C2457      H2465   1.083       .  S
C2458      H2466   1.084       .  S
C2459      C2460   1.204       .  T
C2461      C2462   1.204       .  T
C2467      C2475   1.443       .  S
C2467      C2468   1.401       .  A
C2467      C2472   1.402       .  A
C2468      C2469   1.400       .  A
C2468      H2477   1.083       .  S
C2469      C2470   1.402       .  A
C2469      H2478   1.084       .  S
C2470      C2473   1.442       .  S
C2470      C2471   1.401       .  A
C2471      C2472   1.400       .  A
C2471      H2479   1.083       .  S
C2472      H2480   1.083       .  S
C2473      C2474   1.207       .  T
C2475      C2476   1.208       .  T
C2481      C2489   1.440       .  S
C2481      C2482   1.402       .  A
C2481      C2486   1.401       .  A
C2482      C2483   1.399       .  A
C2482      H2491   1.084       .  S
C2483      C2484   1.401       .  A
C2483      H2492   1.083       .  S
C2484      C2487   1.441       .  S
C2484      C2485   1.402       .  A
C2485      C2486   1.399       .  A
C2485      H2493   1.084       .  S
C2486      H2494   1.083   1_655  S
C2487      C2488   1.207       .  T
C2489      C2490   1.206       .  T
C2495      C2503   1.444       .  S
C2495      C2496   1.403       .  A
C2495      C2500   1.402       .  A
C2496      C2497   1.400       .  A
C2496      H2505   1.083       .  S
C2497      C2498   1.401       .  A
C2497      H2506   1.083       .  S
C2498      C2501   1.444       .  S
C2498      C2499   1.403       .  A
C2499      C2500   1.401       .  A
C2499      H2507   1.083       .  S
C2500      H2508   1.083       .  S
C2501      C2502   1.209       .  T
C2503      C2504   1.209       .  T
C2509      C2517   1.444       .  S
C2509      C2510   1.402       .  A
C2509      C2514   1.402       .  A
C2510      C2511   1.400       .  A
C2510      H2519   1.083       .  S
C2511      C2512   1.401       .  A
C2511      H2520   1.083       .  S
C2512      C2515   1.443       .  S
C2512      C2513   1.403       .  A
C2513      C2514   1.401       .  A
C2513      H2521   1.084       .  S
C2514      H2522   1.083       .  S
C2515      C2516   1.208       .  T
C2517      C2518   1.208       .  T
C2523      C2531   1.437       .  S
C2523      C2524   1.401       .  A
C2523      C2528   1.400       .  A
C2524      C2525   1.398       .  A
C2524      H2533   1.084       .  S
C2525      C2526   1.401       .  A
C2525      H2534   1.084       .  S
C2526      C2529   1.437       .  S
C2526      C2527   1.401       .  A
C2527      C2528   1.398       .  A
C2527      H2535   1.084       .  S
C2528      H2536   1.084       .  S
C2529      C2530   1.204       .  T
C2531      C2532   1.204       .  T
C2537      C2545   1.439       .  S
C2537      C2538   1.400       .  A
C2537      C2542   1.402       .  A
C2538      C2539   1.399       .  A
C2538      H2547   1.084       .  S
C2539      C2540   1.402       .  A
C2539      H2548   1.084       .  S
C2540      C2543   1.439       .  S
C2540      C2541   1.400       .  A
C2541      C2542   1.398       .  A
C2541      H2549   1.084       .  S
C2542      H2550   1.084       .  S
C2543      C2544   1.205       .  T
C2545      C2546   1.205       .  T
C2551      C2559   1.443       .  S
C2551      C2552   1.401       .  A
C2551      C2556   1.402       .  A
C2552      C2553   1.401       .  A
C2552      H2561   1.083       .  S
C2553      C2554   1.403       .  A
C2553      H2562   1.083       .  S
C2554      C2557   1.443       .  S
C2554      C2555   1.401       .  A
C2555      C2556   1.400       .  A
C2555      H2563   1.084       .  S
C2556      H2564   1.083       .  S
C2557      C2558   1.208       .  T
C2559      C2560   1.207       .  T
C2565      C2573   1.441       .  S
C2565      C2566   1.402   1_455  A
C2565      C2570   1.402       .  A
C2566      C2567   1.399   1_554  A
C2566      H2575   1.083       .  S
C2567      C2568   1.401       .  A
C2567      H2576   1.083       .  S
C2568      C2571   1.441       .  S
C2568      C2569   1.402   1_655  A
C2569      C2570   1.400   1_556  A
C2569      H2577   1.083       .  S
C2570      H2578   1.083       .  S
C2571      C2572   1.207       .  T
C2573      C2574   1.207       .  T
C2579      C2587   1.442       .  S
C2579      C2580   1.401       .  A
C2579      C2584   1.402       .  A
C2580      C2581   1.400       .  A
C2580      H2589   1.083       .  S
C2581      C2582   1.402       .  A
C2581      H2590   1.083       .  S
C2582      C2585   1.443       .  S
C2582      C2583   1.402       .  A
C2583      C2584   1.400       .  A
C2583      H2591   1.083       .  S
C2584      H2592   1.084       .  S
C2585      C2586   1.208       .  T
C2587      C2588   1.207       .  T
C2593      C2601   1.443       .  S
C2593      C2594   1.402       .  A
C2593      C2598   1.402       .  A
C2594      C2595   1.400       .  A
C2594      H2603   1.084       .  S
C2595      C2596   1.401       .  A
C2595      H2604   1.083       .  S
C2596      C2599   1.444       .  S
C2596      C2597   1.403       .  A
C2597      C2598   1.401       .  A
C2597      H2605   1.084       .  S
C2598      H2606   1.083       .  S
C2599      C2600   1.208       .  T
C2601      C2602   1.208       .  T
C2607      C2615   1.440       .  S
C2607      C2608   1.402       .  A
C2607      C2612   1.401       .  A
C2608      C2609   1.399       .  A
C2608      H2617   1.083       .  S
C2609      C2610   1.401       .  A
C2609      H2618   1.083       .  S
C2610      C2613   1.440       .  S
C2610      C2611   1.402       .  A
C2611      C2612   1.400       .  A
C2611      H2619   1.083       .  S
C2612      H2620   1.083       .  S
C2613      C2614   1.206       .  T
C2615      C2616   1.206       .  T
C2621      C2629   1.441       .  S
C2621      C2622   1.402       .  A
C2621      C2626   1.401       .  A
C2622      C2623   1.399   1_554  A
C2622      H2631   1.083       .  S
C2623      C2624   1.401       .  A
C2623      H2632   1.084       .  S
C2624      C2627   1.440       .  S
C2624      C2625   1.401       .  A
C2625      C2626   1.399   1_556  A
C2625      H2633   1.083       .  S
C2626      H2634   1.083       .  S
C2627      C2628   1.206       .  T
C2629      C2630   1.206       .  T
C2635      C2643   1.442       .  S
C2635      C2636   1.401       .  A
C2635      C2640   1.402       .  A
C2636      C2637   1.400       .  A
C2636      H2645   1.083       .  S
C2637      C2638   1.402       .  A
C2637      H2646   1.083       .  S
C2638      C2641   1.442       .  S
C2638      C2639   1.401       .  A
C2639      C2640   1.400       .  A
C2639      H2647   1.083       .  S
C2640      H2648   1.083       .  S
C2641      C2642   1.207       .  T
C2643      C2644   1.207       .  T
C2649      C2657   1.438       .  S
C2649      C2650   1.400       .  A
C2649      C2654   1.402       .  A
C2650      C2651   1.398       .  A
C2650      H2659   1.083       .  S
C2651      C2652   1.402       .  A
C2651      H2660   1.084       .  S
C2652      C2655   1.439       .  S
C2652      C2653   1.400       .  A
C2653      C2654   1.399       .  A
C2653      H2661   1.083       .  S
C2654      H2662   1.084       .  S
C2655      C2656   1.205       .  T
C2657      C2658   1.205       .  T
C2663      C2671   1.438       .  S
C2663      C2664   1.400       .  A
C2663      C2668   1.402       .  A
C2664      C2665   1.398       .  A
C2664      H2673   1.083       .  S
C2665      C2666   1.402       .  A
C2665      H2674   1.084       .  S
C2666      C2669   1.438       .  S
C2666      C2667   1.400       .  A
C2667      C2668   1.398       .  A
C2667      H2675   1.083       .  S
C2668      H2676   1.084       .  S
C2669      C2670   1.205       .  T
C2671      C2672   1.205       .  T
C2677      C2685   1.442       .  S
C2677      C2678   1.402       .  A
C2677      C2682   1.402       .  A
C2678      C2679   1.400       .  A
C2678      H2687   1.084       .  S
C2679      C2680   1.402       .  A
C2679      H2688   1.083       .  S
C2680      C2683   1.442       .  S
C2680      C2681   1.402       .  A
C2681      C2682   1.399       .  A
C2681      H2689   1.084       .  S
C2682      H2690   1.083       .  S
C2683      C2684   1.207       .  T
C2685      C2686   1.207       .  T
C2691      C2699   1.442       .  S
C2691      C2692   1.401       .  A
C2691      C2696   1.402       .  A
C2692      C2693   1.400       .  A
C2692      H2701   1.083       .  S
C2693      C2694   1.402       .  A
C2693      H2702   1.083       .  S
C2694      C2697   1.442       .  S
C2694      C2695   1.401       .  A
C2695      C2696   1.400       .  A
C2695      H2703   1.083       .  S
C2696      H2704   1.083       .  S
C2697      C2698   1.207       .  T
C2699      C2700   1.207       .  T
C2705      C2713   1.439       .  S
C2705      C2706   1.401       .  A
C2705      C2710   1.401       .  A
C2706      C2707   1.399       .  A
C2706      H2715   1.083       .  S
C2707      C2708   1.401       .  A
C2707      H2716   1.083       .  S
C2708      C2711   1.439       .  S
C2708      C2709   1.401       .  A
C2709      C2710   1.398       .  A
C2709      H2717   1.083       .  S
C2710      H2718   1.083       .  S
C2711      C2712   1.206       .  T
C2713      C2714   1.205       .  T
C2719      C2727   1.442       .  S
C2719      C2720   1.402       .  A
C2719      C2724   1.402       .  A
C2720      C2721   1.400       .  A
C2720      H2729   1.083       .  S
C2721      C2722   1.402       .  A
C2721      H2730   1.083       .  S
C2722      C2725   1.442       .  S
C2722      C2723   1.402       .  A
C2723      C2724   1.400       .  A
C2723      H2731   1.083       .  S
C2724      H2732   1.083       .  S
C2725      C2726   1.208       .  T
C2727      C2728   1.207       .  T
C2733      C2741   1.438       .  S
C2733      C2734   1.400       .  A
C2733      C2738   1.402       .  A
C2734      C2735   1.398       .  A
C2734      H2743   1.084       .  S
C2735      C2736   1.402       .  A
C2735      H2744   1.084       .  S
C2736      C2739   1.438       .  S
C2736      C2737   1.400       .  A
C2737      C2738   1.398       .  A
C2737      H2745   1.083       .  S
C2738      H2746   1.084       .  S
C2739      C2740   1.205       .  T
C2741      C2742   1.205       .  T
C2747      C2755   1.439       .  S
C2747      C2748   1.400       .  A
C2747      C2752   1.402       .  A
C2748      C2749   1.398   1_655  A
C2748      H2757   1.083       .  S
C2749      C2750   1.402       .  A
C2749      H2758   1.084       .  S
C2750      C2753   1.439       .  S
C2750      C2751   1.400       .  A
C2751      C2752   1.399   1_455  A
C2751      H2759   1.083       .  S
C2752      H2760   1.084       .  S
C2753      C2754   1.205       .  T
C2755      C2756   1.205       .  T
C2761      C2769   1.440       .  S
C2761      C2762   1.401       .  A
C2761      C2766   1.402       .  A
C2762      C2763   1.399       .  A
C2762      H2771   1.083       .  S
C2763      C2764   1.402       .  A
C2763      H2772   1.083       .  S
C2764      C2767   1.440       .  S
C2764      C2765   1.401       .  A
C2765      C2766   1.399       .  A
C2765      H2773   1.083       .  S
C2766      H2774   1.083       .  S
C2767      C2768   1.206       .  T
C2769      C2770   1.206       .  T
C2775      C2783   1.440       .  S
C2775      C2776   1.401       .  A
C2775      C2780   1.401       .  A
C2776      C2777   1.399       .  A
C2776      H2785   1.084       .  S
C2777      C2778   1.402       .  A
C2777      H2786   1.084       .  S
C2778      C2781   1.440       .  S
C2778      C2779   1.401       .  A
C2779      C2780   1.399       .  A
C2779      H2787   1.083       .  S
C2780      H2788   1.083       .  S
C2781      C2782   1.206       .  T
C2783      C2784   1.206       .  T
C2789      C2797   1.439       .  S
C2789      C2790   1.401       .  A
C2789      C2794   1.401       .  A
C2790      C2791   1.398       .  A
C2790      H2799   1.083       .  S
C2791      C2792   1.401       .  A
C2791      H2800   1.084       .  S
C2792      C2795   1.439       .  S
C2792      C2793   1.401       .  A
C2793      C2794   1.399       .  A
C2793      H2801   1.083       .  S
C2794      H2802   1.084       .  S
C2795      C2796   1.205       .  T
C2797      C2798   1.205   1_455  T
C2803      C2811   1.441       .  S
C2803      C2804   1.402       .  A
C2803      C2808   1.401       .  A
C2804      C2805   1.400       .  A
C2804      H2813   1.083       .  S
C2805      C2806   1.401       .  A
C2805      H2814   1.083       .  S
C2806      C2809   1.442       .  S
C2806      C2807   1.402       .  A
C2807      C2808   1.400       .  A
C2807      H2815   1.083       .  S
C2808      H2816   1.083       .  S
C2809      C2810   1.207       .  T
C2811      C2812   1.207       .  T
C2817      C2825   1.443       .  S
C2817      C2818   1.402   1_545  A
C2817      C2822   1.402       .  A
C2818      C2819   1.400       .  A
C2818      H2827   1.083       .  S
C2819      C2820   1.402       .  A
C2819      H2828   1.083       .  S
C2820      C2823   1.443       .  S
C2820      C2821   1.402   1_565  A
C2821      C2822   1.401       .  A
C2821      H2829   1.083       .  S
C2822      H2830   1.083       .  S
C2823      C2824   1.208       .  T
C2825      C2826   1.208       .  T
C2831      C2839   1.444       .  S
C2831      C2832   1.403       .  A
C2831      C2836   1.401       .  A
C2832      C2833   1.401       .  A
C2832      H2841   1.083       .  S
C2833      C2834   1.401       .  A
C2833      H2842   1.083       .  S
C2834      C2837   1.445       .  S
C2834      C2835   1.403       .  A
C2835      C2836   1.401       .  A
C2835      H2843   1.083       .  S
C2836      H2844   1.083       .  S
C2837      C2838   1.209       .  T
C2839      C2840   1.208       .  T
C2845      C2853   1.439   1_565  S
C2845      C2846   1.401   1_565  A
C2845      C2850   1.401       .  A
C2846      C2847   1.399   1_545  A
C2846      H2855   1.083       .  S
C2847      C2848   1.401       .  A
C2847      H2856   1.083   1_565  S
C2848      C2851   1.439       .  S
C2848      C2849   1.401       .  A
C2849      C2850   1.399       .  A
C2849      H2857   1.083       .  S
C2850      H2858   1.083       .  S
C2851      C2852   1.206       .  T
C2853      C2854   1.206       .  T
C2859      C2867   1.440       .  S
C2859      C2860   1.402       .  A
C2859      C2864   1.401   1_545  A
C2860      C2861   1.399   1_545  A
C2860      H2869   1.084       .  S
C2861      C2862   1.401       .  A
C2861      H2870   1.084       .  S
C2862      C2865   1.440       .  S
C2862      C2863   1.402       .  A
C2863      C2864   1.399       .  A
C2863      H2871   1.084       .  S
C2864      H2872   1.083       .  S
C2865      C2866   1.206       .  T
C2867      C2868   1.206       .  T
C2873      C2881   1.438       .  S
C2873      C2874   1.402   1_565  A
C2873      C2878   1.400       .  A
C2874      C2875   1.398       .  A
C2874      H2883   1.084       .  S
C2875      C2876   1.400       .  A
C2875      H2884   1.083       .  S
C2876      C2879   1.438       .  S
C2876      C2877   1.402   1_545  A
C2877      C2878   1.398       .  A
C2877      H2885   1.084       .  S
C2878      H2886   1.083       .  S
C2879      C2880   1.205       .  T
C2881      C2882   1.205       .  T
C2887      C2895   1.445       .  S
C2887      C2888   1.402       .  A
C2887      C2892   1.402       .  A
C2888      C2889   1.401       .  A
C2888      H2897   1.083       .  S
C2889      C2890   1.402       .  A
C2889      H2898   1.084       .  S
C2890      C2893   1.445       .  S
C2890      C2891   1.402       .  A
C2891      C2892   1.401       .  A
C2891      H2899   1.083       .  S
C2892      H2900   1.084       .  S
C2893      C2894   1.209       .  T
C2895      C2896   1.209       .  T
C2901      C2909   1.444       .  S
C2901      C2902   1.402       .  A
C2901      C2906   1.402       .  A
C2902      C2903   1.401       .  A
C2902      H2911   1.083       .  S
C2903      C2904   1.402       .  A
C2903      H2912   1.084       .  S
C2904      C2907   1.444       .  S
C2904      C2905   1.402       .  A
C2905      C2906   1.400       .  A
C2905      H2913   1.083       .  S
C2906      H2914   1.084       .  S
C2907      C2908   1.208       .  T
C2909      C2910   1.208       .  T
C2915      C2923   1.445       .  S
C2915      C2916   1.402       .  A
C2915      C2920   1.402   1_565  A
C2916      C2917   1.401       .  A
C2916      H2925   1.083       .  S
C2917      C2918   1.402       .  A
C2917      H2926   1.083       .  S
C2918      C2921   1.445       .  S
C2918      C2919   1.402   1_565  A
C2919      C2920   1.401       .  A
C2919      H2927   1.083       .  S
C2920      H2928   1.083       .  S
C2921      C2922   1.209       .  T
C2923      C2924   1.209       .  T
C2929      C2937   1.438       .  S
C2929      C2930   1.402   1_565  A
C2929      C2934   1.400       .  A
C2930      C2931   1.398       .  A
C2930      H2939   1.084       .  S
C2931      C2932   1.400   1_545  A
C2931      H2940   1.084       .  S
C2932      C2935   1.438   1_565  S
C2932      C2933   1.403       .  A
C2933      C2934   1.399       .  A
C2933      H2941   1.084       .  S
C2934      H2942   1.083       .  S
C2935      C2936   1.205       .  T
C2937      C2938   1.205       .  T
C2943      C2951   1.439       .  S
C2943      C2944   1.401       .  A
C2943      C2948   1.402   1_565  A
C2944      C2945   1.399       .  A
C2944      H2953   1.083       .  S
C2945      C2946   1.402       .  A
C2945      H2954   1.084       .  S
C2946      C2949   1.439   1_565  S
C2946      C2947   1.400   1_565  A
C2947      C2948   1.398       .  A
C2947      H2955   1.084       .  S
C2948      H2956   1.084       .  S
C2949      C2950   1.205       .  T
C2951      C2952   1.205       .  T
C2957      C2965   1.445       .  S
C2957      C2958   1.403       .  A
C2957      C2962   1.402       .  A
C2958      C2959   1.401       .  A
C2958      H2967   1.083       .  S
C2959      C2960   1.402       .  A
C2959      H2968   1.084       .  S
C2960      C2963   1.446       .  S
C2960      C2961   1.403       .  A
C2961      C2962   1.402       .  A
C2961      H2969   1.083       .  S
C2962      H2970   1.083       .  S
C2963      C2964   1.209       .  T
C2965      C2966   1.209       .  T
C2971      C2979   1.441       .  S
C2971      C2972   1.402   1_565  A
C2971      C2976   1.401       .  A
C2972      C2973   1.400       .  A
C2972      H2981   1.083       .  S
C2973      C2974   1.401   1_545  A
C2973      H2982   1.083       .  S
C2974      C2977   1.441       .  S
C2974      C2975   1.402       .  A
C2975      C2976   1.400       .  A
C2975      H2983   1.083       .  S
C2976      H2984   1.083   1_455  S
C2977      C2978   1.207       .  T
C2979      C2980   1.207       .  T
C2985      C2993   1.442       .  S
C2985      C2986   1.402       .  A
C2985      C2990   1.402       .  A
C2986      C2987   1.400       .  A
C2986      H2995   1.083       .  S
C2987      C2988   1.402       .  A
C2987      H2996   1.083       .  S
C2988      C2991   1.443       .  S
C2988      C2989   1.401       .  A
C2989      C2990   1.400       .  A
C2989      H2997   1.083       .  S
C2990      H2998   1.083       .  S
C2991      C2992   1.208       .  T
C2993      C2994   1.207       .  T
C2999      C3007   1.442       .  S
C2999      C3000   1.402       .  A
C2999      C3004   1.402       .  A
C3000      C3001   1.400       .  A
C3000      H3009   1.083       .  S
C3001      C3002   1.402       .  A
C3001      H3010   1.083       .  S
C3002      C3005   1.443       .  S
C3002      C3003   1.402       .  A
C3003      C3004   1.400       .  A
C3003      H3011   1.084       .  S
C3004      H3012   1.083       .  S
C3005      C3006   1.208       .  T
C3007      C3008   1.207       .  T
C3013      C3021   1.438       .  S
C3013      C3014   1.400       .  A
C3013      C3018   1.402       .  A
C3014      C3015   1.398       .  A
C3014      H3023   1.083       .  S
C3015      C3016   1.401       .  A
C3015      H3024   1.084       .  S
C3016      C3019   1.438       .  S
C3016      C3017   1.401       .  A
C3017      C3018   1.399       .  A
C3017      H3025   1.083       .  S
C3018      H3026   1.084       .  S
C3019      C3020   1.205       .  T
C3021      C3022   1.205       .  T
C3027      C3035   1.440       .  S
C3027      C3028   1.401       .  A
C3027      C3032   1.401       .  A
C3028      C3029   1.399       .  A
C3028      H3037   1.084       .  S
C3029      C3030   1.401       .  A
C3029      H3038   1.083       .  S
C3030      C3033   1.440       .  S
C3030      C3031   1.401       .  A
C3031      C3032   1.399       .  A
C3031      H3039   1.084       .  S
C3032      H3040   1.083       .  S
C3033      C3034   1.206       .  T
C3035      C3036   1.206       .  T
C3041      C3049   1.441       .  S
C3041      C3042   1.401       .  A
C3041      C3046   1.402       .  A
C3042      C3043   1.400       .  A
C3042      H3051   1.083       .  S
C3043      C3044   1.402       .  A
C3043      H3052   1.083       .  S
C3044      C3047   1.442       .  S
C3044      C3045   1.402       .  A
C3045      C3046   1.399       .  A
C3045      H3053   1.083       .  S
C3046      H3054   1.083       .  S
C3047      C3048   1.207       .  T
C3049      C3050   1.207       .  T
C3055      C3063   1.444       .  S
C3055      C3056   1.401       .  A
C3055      C3060   1.403       .  A
C3056      C3057   1.400       .  A
C3056      H3065   1.083       .  S
C3057      C3058   1.402       .  A
C3057      H3066   1.083       .  S
C3058      C3061   1.443       .  S
C3058      C3059   1.401       .  A
C3059      C3060   1.401       .  A
C3059      H3067   1.083       .  S
C3060      H3068   1.083       .  S
C3061      C3062   1.208       .  T
C3063      C3064   1.208       .  T
C3069      C3077   1.443       .  S
C3069      C3070   1.402       .  A
C3069      C3074   1.401       .  A
C3070      C3071   1.401       .  A
C3070      H3079   1.083       .  S
C3071      C3072   1.402       .  A
C3071      H3080   1.083       .  S
C3072      C3075   1.443       .  S
C3072      C3073   1.402       .  A
C3073      C3074   1.400       .  A
C3073      H3081   1.083       .  S
C3074      H3082   1.083       .  S
C3075      C3076   1.208       .  T
C3077      C3078   1.208       .  T
C3083      C3091   1.441       .  S
C3083      C3084   1.402   1_655  A
C3083      C3088   1.401       .  A
C3084      C3085   1.399       .  A
C3084      H3093   1.083       .  S
C3085      C3086   1.401   1_455  A
C3085      H3094   1.083       .  S
C3086      C3089   1.440   1_655  S
C3086      C3087   1.402       .  A
C3087      C3088   1.399       .  A
C3087      H3095   1.083       .  S
C3088      H3096   1.083       .  S
C3089      C3090   1.206       .  T
C3091      C3092   1.207       .  T
C3097      C3105   1.443       .  S
C3097      C3098   1.403       .  A
C3097      C3102   1.401       .  A
C3098      C3099   1.400       .  A
C3098      H3107   1.084       .  S
C3099      C3100   1.401       .  A
C3099      H3108   1.083   1_455  S
C3100      C3103   1.443       .  S
C3100      C3101   1.402       .  A
C3101      C3102   1.400       .  A
C3101      H3109   1.084       .  S
C3102      H3110   1.083       .  S
C3103      C3104   1.208       .  T
C3105      C3106   1.208       .  T
C3111      C3119   1.437       .  S
C3111      C3112   1.401       .  A
C3111      C3116   1.401       .  A
C3112      C3113   1.398       .  A
C3112      H3121   1.084       .  S
C3113      C3114   1.401       .  A
C3113      H3122   1.084       .  S
C3114      C3117   1.437       .  S
C3114      C3115   1.401       .  A
C3115      C3116   1.398       .  A
C3115      H3123   1.084       .  S
C3116      H3124   1.084       .  S
C3117      C3118   1.204       .  T
C3119      C3120   1.204       .  T
C3125      C3133   1.438       .  S
C3125      C3126   1.401       .  A
C3125      C3130   1.401       .  A
C3126      C3127   1.398       .  A
C3126      H3135   1.084       .  S
C3127      C3128   1.401       .  A
C3127      H3136   1.084       .  S
C3128      C3131   1.438       .  S
C3128      C3129   1.401       .  A
C3129      C3130   1.398       .  A
C3129      H3137   1.084       .  S
C3130      H3138   1.084       .  S
C3131      C3132   1.205       .  T
C3133      C3134   1.205       .  T
C3139      C3147   1.444       .  S
C3139      C3140   1.402       .  A
C3139      C3144   1.402       .  A
C3140      C3141   1.401       .  A
C3140      H3149   1.083   1_455  S
C3141      C3142   1.403       .  A
C3141      H3150   1.083       .  S
C3142      C3145   1.444       .  S
C3142      C3143   1.401       .  A
C3143      C3144   1.400       .  A
C3143      H3151   1.083       .  S
C3144      H3152   1.084       .  S
C3145      C3146   1.208       .  T
C3147      C3148   1.208       .  T
C3153      C3161   1.442       .  S
C3153      C3154   1.402       .  A
C3153      C3158   1.402       .  A
C3154      C3155   1.400       .  A
C3154      H3163   1.083       .  S
C3155      C3156   1.402       .  A
C3155      H3164   1.083       .  S
C3156      C3159   1.442       .  S
C3156      C3157   1.401       .  A
C3157      C3158   1.399       .  A
C3157      H3165   1.083       .  S
C3158      H3166   1.083       .  S
C3159      C3160   1.207       .  T
C3161      C3162   1.207       .  T
C3167      C3175   1.442       .  S
C3167      C3168   1.401       .  A
C3167      C3172   1.402       .  A
C3168      C3169   1.400       .  A
C3168      H3177   1.083       .  S
C3169      C3170   1.402       .  A
C3169      H3178   1.083       .  S
C3170      C3173   1.441       .  S
C3170      C3171   1.401       .  A
C3171      C3172   1.399       .  A
C3171      H3179   1.083       .  S
C3172      H3180   1.083       .  S
C3173      C3174   1.207       .  T
C3175      C3176   1.207       .  T
C3181      C3189   1.441       .  S
C3181      C3182   1.401       .  A
C3181      C3186   1.402       .  A
C3182      C3183   1.399       .  A
C3182      H3191   1.084       .  S
C3183      C3184   1.402       .  A
C3183      H3192   1.083       .  S
C3184      C3187   1.441       .  S
C3184      C3185   1.401       .  A
C3185      C3186   1.399       .  A
C3185      H3193   1.084       .  S
C3186      H3194   1.083       .  S
C3187      C3188   1.207       .  T
C3189      C3190   1.207       .  T
C3195      C3203   1.442       .  S
C3195      C3196   1.402       .  A
C3195      C3200   1.401       .  A
C3196      C3197   1.400       .  A
C3196      H3205   1.083       .  S
C3197      C3198   1.402       .  A
C3197      H3206   1.083       .  S
C3198      C3201   1.443       .  S
C3198      C3199   1.401       .  A
C3199      C3200   1.400       .  A
C3199      H3207   1.083       .  S
C3200      H3208   1.083       .  S
C3201      C3202   1.208       .  T
C3203      C3204   1.207       .  T
C3209      C3217   1.440       .  S
C3209      C3210   1.402       .  A
C3209      C3214   1.401       .  A
C3210      C3211   1.399       .  A
C3210      H3219   1.083       .  S
C3211      C3212   1.401       .  A
C3211      H3220   1.084       .  S
C3212      C3215   1.440       .  S
C3212      C3213   1.402       .  A
C3213      C3214   1.399       .  A
C3213      H3221   1.083       .  S
C3214      H3222   1.083       .  S
C3215      C3216   1.206       .  T
C3217      C3218   1.206       .  T
C3223      C3231   1.437       .  S
C3223      C3224   1.402       .  A
C3223      C3228   1.400       .  A
C3224      C3225   1.398       .  A
C3224      H3233   1.084       .  S
C3225      C3226   1.400       .  A
C3225      H3234   1.084       .  S
C3226      C3229   1.437       .  S
C3226      C3227   1.401       .  A
C3227      C3228   1.398       .  A
C3227      H3235   1.084       .  S
C3228      H3236   1.083       .  S
C3229      C3230   1.204       .  T
C3231      C3232   1.204       .  T
C3237      C3245   1.439       .  S
C3237      C3238   1.400       .  A
C3237      C3242   1.402       .  A
C3238      C3239   1.399       .  A
C3238      H3247   1.083       .  S
C3239      C3240   1.402       .  A
C3239      H3248   1.084       .  S
C3240      C3243   1.440       .  S
C3240      C3241   1.401       .  A
C3241      C3242   1.399       .  A
C3241      H3249   1.083       .  S
C3242      H3250   1.084       .  S
C3243      C3244   1.206       .  T
C3245      C3246   1.205   1_455  T
C3251      C3259   1.445       .  S
C3251      C3252   1.401       .  A
C3251      C3256   1.403       .  A
C3252      C3253   1.401       .  A
C3252      H3261   1.083       .  S
C3253      C3254   1.402       .  A
C3253      H3262   1.083       .  S
C3254      C3257   1.445       .  S
C3254      C3255   1.402       .  A
C3255      C3256   1.402       .  A
C3255      H3263   1.084       .  S
C3256      H3264   1.083       .  S
C3257      C3258   1.209       .  T
C3259      C3260   1.209       .  T
C3265      C3273   1.441       .  S
C3265      C3266   1.401       .  A
C3265      C3270   1.402       .  A
C3266      C3267   1.399       .  A
C3266      H3275   1.083       .  S
C3267      C3268   1.402       .  A
C3267      H3276   1.084       .  S
C3268      C3271   1.440       .  S
C3268      C3269   1.400       .  A
C3269      C3270   1.399       .  A
C3269      H3277   1.083       .  S
C3270      H3278   1.084       .  S
C3271      C3272   1.206       .  T
C3273      C3274   1.207       .  T
C3279      C3287   1.443       .  S
C3279      C3280   1.403       .  A
C3279      C3284   1.401       .  A
C3280      C3281   1.400       .  A
C3280      H3289   1.083       .  S
C3281      C3282   1.401       .  A
C3281      H3290   1.084       .  S
C3282      C3285   1.442       .  S
C3282      C3283   1.403       .  A
C3283      C3284   1.400       .  A
C3283      H3291   1.083       .  S
C3284      H3292   1.083       .  S
C3285      C3286   1.207       .  T
C3287      C3288   1.208       .  T
C3293      C3301   1.445       .  S
C3293      C3294   1.403       .  A
C3293      C3298   1.402       .  A
C3294      C3295   1.402       .  A
C3294      H3303   1.083       .  S
C3295      C3296   1.403       .  A
C3295      H3304   1.083       .  S
C3296      C3299   1.444       .  S
C3296      C3297   1.401       .  A
C3297      C3298   1.400       .  A
C3297      H3305   1.083       .  S
C3298      H3306   1.083       .  S
C3299      C3300   1.208       .  T
C3301      C3302   1.209       .  T
C3307      C3315   1.442       .  S
C3307      C3308   1.401       .  A
C3307      C3312   1.402       .  A
C3308      C3309   1.399       .  A
C3308      H3317   1.083       .  S
C3309      C3310   1.402       .  A
C3309      H3318   1.084       .  S
C3310      C3313   1.441       .  S
C3310      C3311   1.401       .  A
C3311      C3312   1.400       .  A
C3311      H3319   1.083       .  S
C3312      H3320   1.084       .  S
C3313      C3314   1.207       .  T
C3315      C3316   1.207       .  T
C3321      C3329   1.438       .  S
C3321      C3322   1.401       .  A
C3321      C3326   1.401       .  A
C3322      C3323   1.398       .  A
C3322      H3331   1.084       .  S
C3323      C3324   1.401       .  A
C3323      H3332   1.084       .  S
C3324      C3327   1.438       .  S
C3324      C3325   1.401       .  A
C3325      C3326   1.398       .  A
C3325      H3333   1.084       .  S
C3326      H3334   1.084       .  S
C3327      C3328   1.205       .  T
C3329      C3330   1.205       .  T
C3335      C3343   1.439       .  S
C3335      C3336   1.402       .  A
C3335      C3340   1.401       .  A
C3336      C3337   1.399   1_655  A
C3336      H3345   1.084       .  S
C3337      C3338   1.401       .  A
C3337      H3346   1.084       .  S
C3338      C3341   1.439       .  S
C3338      C3339   1.402       .  A
C3339      C3340   1.399   1_455  A
C3339      H3347   1.084       .  S
C3340      H3348   1.083       .  S
C3341      C3342   1.205       .  T
C3343      C3344   1.205       .  T
C3349      C3357   1.440       .  S
C3349      C3350   1.402       .  A
C3349      C3354   1.401       .  A
C3350      C3351   1.399       .  A
C3350      H3359   1.084       .  S
C3351      C3352   1.401       .  A
C3351      H3360   1.083       .  S
C3352      C3355   1.441       .  S
C3352      C3353   1.402       .  A
C3353      C3354   1.399       .  A
C3353      H3361   1.084       .  S
C3354      H3362   1.083       .  S
C3355      C3356   1.207       .  T
C3357      C3358   1.206       .  T
C3363      C3371   1.442       .  S
C3363      C3364   1.402       .  A
C3363      C3368   1.402       .  A
C3364      C3365   1.400       .  A
C3364      H3373   1.083       .  S
C3365      C3366   1.402       .  A
C3365      H3374   1.083       .  S
C3366      C3369   1.442       .  S
C3366      C3367   1.401       .  A
C3367      C3368   1.400       .  A
C3367      H3375   1.083       .  S
C3368      H3376   1.083       .  S
C3369      C3370   1.207       .  T
C3371      C3372   1.208       .  T
C3377      C3385   1.441       .  S
C3377      C3378   1.402       .  A
C3377      C3382   1.402   1_465  A
C3378      C3379   1.400       .  A
C3378      H3387   1.083       .  S
C3379      C3380   1.402   1_465  A
C3379      H3388   1.084       .  S
C3380      C3383   1.441       .  S
C3380      C3381   1.401       .  A
C3381      C3382   1.399       .  A
C3381      H3389   1.083       .  S
C3382      H3390   1.084       .  S
C3383      C3384   1.207       .  T
C3385      C3386   1.207       .  T
C3391      C3399   1.441       .  S
C3391      C3392   1.401       .  A
C3391      C3396   1.402   1_545  A
C3392      C3393   1.400       .  A
C3392      H3401   1.083       .  S
C3393      C3394   1.402   1_545  A
C3393      H3402   1.083       .  S
C3394      C3397   1.442       .  S
C3394      C3395   1.402       .  A
C3395      C3396   1.399       .  A
C3395      H3403   1.083       .  S
C3396      H3404   1.083       .  S
C3397      C3398   1.207       .  T
C3399      C3400   1.207       .  T
C3405      C3413   1.439       .  S
C3405      C3406   1.402   1_545  A
C3405      C3410   1.400       .  A
C3406      C3407   1.399       .  A
C3406      H3415   1.084       .  S
C3407      C3408   1.401       .  A
C3407      H3416   1.083       .  S
C3408      C3411   1.439       .  S
C3408      C3409   1.402   1_565  A
C3409      C3410   1.398       .  A
C3409      H3417   1.084       .  S
C3410      H3418   1.083       .  S
C3411      C3412   1.205       .  T
C3413      C3414   1.205       .  T
C3419      C3427   1.438       .  S
C3419      C3420   1.402   1_565  A
C3419      C3424   1.400       .  A
C3420      C3421   1.398       .  A
C3420      H3429   1.084       .  S
C3421      C3422   1.400       .  A
C3421      H3430   1.083       .  S
C3422      C3425   1.439       .  S
C3422      C3423   1.402   1_545  A
C3423      C3424   1.398       .  A
C3423      H3431   1.084       .  S
C3424      H3432   1.084       .  S
C3425      C3426   1.205       .  T
C3427      C3428   1.205       .  T
C3433      C3441   1.437       .  S
C3433      C3434   1.401       .  A
C3433      C3438   1.401       .  A
C3434      C3435   1.398       .  A
C3434      H3443   1.083       .  S
C3435      C3436   1.400       .  A
C3435      H3444   1.083       .  S
C3436      C3439   1.437       .  S
C3436      C3437   1.401       .  A
C3437      C3438   1.398       .  A
C3437      H3445   1.084       .  S
C3438      H3446   1.083       .  S
C3439      C3440   1.204       .  T
C3441      C3442   1.205       .  T
C3447      C3455   1.440       .  S
C3447      C3448   1.401   1_545  A
C3447      C3452   1.402       .  A
C3448      C3449   1.399       .  A
C3448      H3457   1.083   1_655  S
C3449      C3450   1.402   1_565  A
C3449      H3458   1.084       .  S
C3450      C3453   1.440       .  S
C3450      C3451   1.400       .  A
C3451      C3452   1.399       .  A
C3451      H3459   1.083       .  S
C3452      H3460   1.084       .  S
C3453      C3454   1.206       .  T
C3455      C3456   1.206       .  T
C3461      C3469   1.445       .  S
C3461      C3462   1.402       .  A
C3461      C3466   1.402   1_565  A
C3462      C3463   1.401       .  A
C3462      H3471   1.083       .  S
C3463      C3464   1.402   1_565  A
C3463      H3472   1.083       .  S
C3464      C3467   1.444       .  S
C3464      C3465   1.402       .  A
C3465      C3466   1.400       .  A
C3465      H3473   1.083       .  S
C3466      H3474   1.083       .  S
C3467      C3468   1.208       .  T
C3469      C3470   1.209       .  T
C3475      C3483   1.438       .  S
C3475      C3476   1.402       .  A
C3475      C3480   1.400   1_565  A
C3476      C3477   1.398   1_565  A
C3476      H3485   1.084       .  S
C3477      C3478   1.401       .  A
C3477      H3486   1.083       .  S
C3478      C3481   1.438       .  S
C3478      C3479   1.402       .  A
C3479      C3480   1.398       .  A
C3479      H3487   1.084       .  S
C3480      H3488   1.083       .  S
C3481      C3482   1.205       .  T
C3483      C3484   1.205       .  T
C3489      C3497   1.438       .  S
C3489      C3490   1.401       .  A
C3489      C3494   1.402   1_565  A
C3490      C3491   1.398   1_565  A
C3490      H3499   1.084       .  S
C3491      C3492   1.402       .  A
C3491      H3500   1.084   1_545  S
C3492      C3495   1.438       .  S
C3492      C3493   1.400       .  A
C3493      C3494   1.398       .  A
C3493      H3501   1.084       .  S
C3494      H3502   1.084       .  S
C3495      C3496   1.205       .  T
C3497      C3498   1.205       .  T
C3503      C3511   1.441       .  S
C3503      C3504   1.401       .  A
C3503      C3508   1.402   1_545  A
C3504      C3505   1.400       .  A
C3504      H3513   1.083       .  S
C3505      C3506   1.402       .  A
C3505      H3514   1.083       .  S
C3506      C3509   1.441       .  S
C3506      C3507   1.401   1_545  A
C3507      C3508   1.399       .  A
C3507      H3515   1.084       .  S
C3508      H3516   1.083       .  S
C3509      C3510   1.207       .  T
C3511      C3512   1.207       .  T
C3517      C3525   1.442       .  S
C3517      C3518   1.402       .  A
C3517      C3522   1.402       .  A
C3518      C3519   1.400       .  A
C3518      H3527   1.083       .  S
C3519      C3520   1.402       .  A
C3519      H3528   1.083       .  S
C3520      C3523   1.441       .  S
C3520      C3521   1.401       .  A
C3521      C3522   1.399       .  A
C3521      H3529   1.083       .  S
C3522      H3530   1.083       .  S
C3523      C3524   1.207       .  T
C3525      C3526   1.207       .  T
C3531      C3539   1.444       .  S
C3531      C3532   1.401       .  A
C3531      C3536   1.403       .  A
C3532      C3533   1.400       .  A
C3532      H3541   1.084       .  S
C3533      C3534   1.402       .  A
C3533      H3542   1.083       .  S
C3534      C3537   1.444       .  S
C3534      C3535   1.402       .  A
C3535      C3536   1.402       .  A
C3535      H3543   1.084       .  S
C3536      H3544   1.083       .  S
C3537      C3538   1.209       .  T
C3539      C3540   1.209       .  T
C3545      C3553   1.442       .  S
C3545      C3546   1.402       .  A
C3545      C3550   1.401       .  A
C3546      C3547   1.400       .  A
C3546      H3555   1.083       .  S
C3547      C3548   1.402       .  A
C3547      H3556   1.083       .  S
C3548      C3551   1.443       .  S
C3548      C3549   1.402       .  A
C3549      C3550   1.400       .  A
C3549      H3557   1.083       .  S
C3550      H3558   1.083       .  S
C3551      C3552   1.208       .  T
C3553      C3554   1.207       .  T
C3559      C3567   1.438       .  S
C3559      C3560   1.401       .  A
C3559      C3564   1.401       .  A
C3560      C3561   1.398       .  A
C3560      H3569   1.084       .  S
C3561      C3562   1.400       .  A
C3561      H3570   1.084       .  S
C3562      C3565   1.437       .  S
C3562      C3563   1.401       .  A
C3563      C3564   1.399       .  A
C3563      H3571   1.084       .  S
C3564      H3572   1.083       .  S
C3565      C3566   1.204       .  T
C3567      C3568   1.205       .  T
C3573      C3581   1.438       .  S
C3573      C3574   1.401       .  A
C3573      C3578   1.401       .  A
C3574      C3575   1.398       .  A
C3574      H3583   1.084       .  S
C3575      C3576   1.401       .  A
C3575      H3584   1.084       .  S
C3576      C3579   1.438       .  S
C3576      C3577   1.402       .  A
C3577      C3578   1.399       .  A
C3577      H3585   1.084       .  S
C3578      H3586   1.084       .  S
C3579      C3580   1.205       .  T
C3581      C3582   1.205       .  T
C3587      C3595   1.443       .  S
C3587      C3588   1.402       .  A
C3587      C3592   1.402       .  A
C3588      C3589   1.400       .  A
C3588      H3597   1.083       .  S
C3589      C3590   1.402       .  A
C3589      H3598   1.084       .  S
C3590      C3593   1.443       .  S
C3590      C3591   1.402       .  A
C3591      C3592   1.400       .  A
C3591      H3599   1.083       .  S
C3592      H3600   1.084       .  S
C3593      C3594   1.208       .  T
C3595      C3596   1.208       .  T
C3601      C3609   1.441       .  S
C3601      C3602   1.402       .  A
C3601      C3606   1.401       .  A
C3602      C3603   1.400       .  A
C3602      H3611   1.083       .  S
C3603      C3604   1.401       .  A
C3603      H3612   1.083       .  S
C3604      C3607   1.441       .  S
C3604      C3605   1.402       .  A
C3605      C3606   1.399       .  A
C3605      H3613   1.083       .  S
C3606      H3614   1.083       .  S
C3607      C3608   1.207       .  T
C3609      C3610   1.207       .  T
C3615      C3623   1.445       .  S
C3615      C3616   1.403       .  A
C3615      C3620   1.401       .  A
C3616      C3617   1.401       .  A
C3616      H3625   1.083       .  S
C3617      C3618   1.402       .  A
C3617      H3626   1.083       .  S
C3618      C3621   1.445       .  S
C3618      C3619   1.403       .  A
C3619      C3620   1.401       .  A
C3619      H3627   1.083       .  S
C3620      H3628   1.083       .  S
C3621      C3622   1.209       .  T
C3623      C3624   1.209       .  T
C3629      C3637   1.441       .  S
C3629      C3630   1.401       .  A
C3629      C3634   1.402       .  A
C3630      C3631   1.400       .  A
C3630      H3639   1.083       .  S
C3631      C3632   1.402       .  A
C3631      H3640   1.083       .  S
C3632      C3635   1.441       .  S
C3632      C3633   1.401       .  A
C3633      C3634   1.399       .  A
C3633      H3641   1.083       .  S
C3634      H3642   1.083       .  S
C3635      C3636   1.207       .  T
C3637      C3638   1.207       .  T
C3643      C3651   1.441       .  S
C3643      C3644   1.402       .  A
C3643      C3648   1.401       .  A
C3644      C3645   1.399       .  A
C3644      H3653   1.083       .  S
C3645      C3646   1.401       .  A
C3645      H3654   1.083       .  S
C3646      C3649   1.440       .  S
C3646      C3647   1.401       .  A
C3647      C3648   1.399       .  A
C3647      H3655   1.083       .  S
C3648      H3656   1.083       .  S
C3649      C3650   1.206       .  T
C3651      C3652   1.207       .  T
C3657      C3665   1.436       .  S
C3657      C3658   1.401       .  A
C3657      C3662   1.401       .  A
C3658      C3659   1.397       .  A
C3658      H3667   1.084       .  S
C3659      C3660   1.400   1_655  A
C3659      H3668   1.084   1_655  S
C3660      C3663   1.437       .  S
C3660      C3661   1.402       .  A
C3661      C3662   1.398   1_455  A
C3661      H3669   1.084       .  S
C3662      H3670   1.084       .  S
C3663      C3664   1.204       .  T
C3665      C3666   1.204       .  T
C3671      C3679   1.438       .  S
C3671      C3672   1.402       .  A
C3671      C3676   1.400       .  A
C3672      C3673   1.398       .  A
C3672      H3681   1.084       .  S
C3673      C3674   1.400       .  A
C3673      H3682   1.084       .  S
C3674      C3677   1.438       .  S
C3674      C3675   1.402       .  A
C3675      C3676   1.398       .  A
C3675      H3683   1.084       .  S
C3676      H3684   1.083       .  S
C3677      C3678   1.204       .  T
C3679      C3680   1.205       .  T
C3685      C3693   1.444       .  S
C3685      C3686   1.403       .  A
C3685      C3690   1.401       .  A
C3686      C3687   1.401       .  A
C3686      H3695   1.083       .  S
C3687      C3688   1.401       .  A
C3687      H3696   1.083       .  S
C3688      C3691   1.444       .  S
C3688      C3689   1.403       .  A
C3689      C3690   1.400       .  A
C3689      H3697   1.083       .  S
C3690      H3698   1.083       .  S
C3691      C3692   1.208       .  T
C3693      C3694   1.208       .  T
C3699      C3707   1.441       .  S
C3699      C3700   1.402       .  A
C3699      C3704   1.401       .  A
C3700      C3701   1.399       .  A
C3700      H3709   1.083       .  S
C3701      C3702   1.401       .  A
C3701      H3710   1.083       .  S
C3702      C3705   1.440       .  S
C3702      C3703   1.402       .  A
C3703      C3704   1.400       .  A
C3703      H3711   1.083       .  S
C3704      H3712   1.083       .  S
C3705      C3706   1.206       .  T
C3707      C3708   1.206       .  T
C3713      C3721   1.443       .  S
C3713      C3714   1.402       .  A
C3713      C3718   1.402       .  A
C3714      C3715   1.400       .  A
C3714      H3723   1.083       .  S
C3715      C3716   1.402       .  A
C3715      H3724   1.083       .  S
C3716      C3719   1.443       .  S
C3716      C3717   1.402       .  A
C3717      C3718   1.400       .  A
C3717      H3725   1.083       .  S
C3718      H3726   1.083       .  S
C3719      C3720   1.208       .  T
C3721      C3722   1.208       .  T
C3727      C3735   1.441       .  S
C3727      C3728   1.401       .  A
C3727      C3732   1.402       .  A
C3728      C3729   1.400       .  A
C3728      H3737   1.083       .  S
C3729      C3730   1.402       .  A
C3729      H3738   1.084       .  S
C3730      C3733   1.441       .  S
C3730      C3731   1.401       .  A
C3731      C3732   1.399       .  A
C3731      H3739   1.083       .  S
C3732      H3740   1.084       .  S
C3733      C3734   1.207       .  T
C3735      C3736   1.207       .  T
C3741      C3749   1.441       .  S
C3741      C3742   1.402       .  A
C3741      C3746   1.401       .  A
C3742      C3743   1.400       .  A
C3742      H3751   1.083       .  S
C3743      C3744   1.402       .  A
C3743      H3752   1.083       .  S
C3744      C3747   1.441       .  S
C3744      C3745   1.402       .  A
C3745      C3746   1.399       .  A
C3745      H3753   1.083       .  S
C3746      H3754   1.083       .  S
C3747      C3748   1.207       .  T
C3749      C3750   1.207       .  T
C3755      C3763   1.440       .  S
C3755      C3756   1.401       .  A
C3755      C3760   1.401       .  A
C3756      C3757   1.399       .  A
C3756      H3765   1.084       .  S
C3757      C3758   1.401       .  A
C3757      H3766   1.083       .  S
C3758      C3761   1.440       .  S
C3758      C3759   1.401       .  A
C3759      C3760   1.399       .  A
C3759      H3767   1.084       .  S
C3760      H3768   1.083       .  S
C3761      C3762   1.206       .  T
C3763      C3764   1.206       .  T
C3769      C3777   1.438       .  S
C3769      C3770   1.402       .  A
C3769      C3774   1.400       .  A
C3770      C3771   1.398       .  A
C3770      H3779   1.084       .  S
C3771      C3772   1.400       .  A
C3771      H3780   1.084       .  S
C3772      C3775   1.438       .  S
C3772      C3773   1.402       .  A
C3773      C3774   1.398       .  A
C3773      H3781   1.084       .  S
C3774      H3782   1.083       .  S
C3775      C3776   1.205       .  T
C3777      C3778   1.205       .  T
C3783      C3791   1.438       .  S
C3783      C3784   1.400       .  A
C3783      C3788   1.402       .  A
C3784      C3785   1.398       .  A
C3784      H3793   1.083       .  S
C3785      C3786   1.402       .  A
C3785      H3794   1.084       .  S
C3786      C3789   1.437       .  S
C3786      C3787   1.400       .  A
C3787      C3788   1.398       .  A
C3787      H3795   1.084       .  S
C3788      H3796   1.084       .  S
C3789      C3790   1.204       .  T
C3791      C3792   1.205       .  T
C3797      C3805   1.440   1_655  S
C3797      C3798   1.401   1_655  A
C3797      C3802   1.402       .  A
C3798      C3799   1.399       .  A
C3798      H3807   1.083       .  S
C3799      C3800   1.401   1_455  A
C3799      H3808   1.083       .  S
C3800      C3803   1.440       .  S
C3800      C3801   1.401       .  A
C3801      C3802   1.399       .  A
C3801      H3809   1.083       .  S
C3802      H3810   1.083       .  S
C3803      C3804   1.206       .  T
C3805      C3806   1.206       .  T
C3811      C3819   1.441       .  S
C3811      C3812   1.402       .  A
C3811      C3816   1.401       .  A
C3812      C3813   1.399       .  A
C3812      H3821   1.084       .  S
C3813      C3814   1.401       .  A
C3813      H3822   1.083       .  S
C3814      C3817   1.442       .  S
C3814      C3815   1.402       .  A
C3815      C3816   1.400       .  A
C3815      H3823   1.084       .  S
C3816      H3824   1.083       .  S
C3817      C3818   1.207       .  T
C3819      C3820   1.206       .  T
C3825      C3833   1.442       .  S
C3825      C3826   1.401       .  A
C3825      C3830   1.403       .  A
C3826      C3827   1.400       .  A
C3826      H3835   1.083       .  S
C3827      C3828   1.402       .  A
C3827      H3836   1.084       .  S
C3828      C3831   1.442       .  S
C3828      C3829   1.401       .  A
C3829      C3830   1.400       .  A
C3829      H3837   1.083   1_655  S
C3830      H3838   1.083       .  S
C3831      C3832   1.207       .  T
C3833      C3834   1.207       .  T
C3839      C3847   1.442       .  S
C3839      C3840   1.402       .  A
C3839      C3844   1.402       .  A
C3840      C3841   1.400       .  A
C3840      H3849   1.083       .  S
C3841      C3842   1.402       .  A
C3841      H3850   1.083       .  S
C3842      C3845   1.442       .  S
C3842      C3843   1.402       .  A
C3843      C3844   1.400       .  A
C3843      H3851   1.083       .  S
C3844      H3852   1.083       .  S
C3845      C3846   1.207       .  T
C3847      C3848   1.207       .  T
C3853      C3861   1.441       .  S
C3853      C3854   1.401       .  A
C3853      C3858   1.402       .  A
C3854      C3855   1.399       .  A
C3854      H3863   1.083       .  S
C3855      C3856   1.402       .  A
C3855      H3864   1.083       .  S
C3856      C3859   1.441       .  S
C3856      C3857   1.401       .  A
C3857      C3858   1.400       .  A
C3857      H3865   1.083       .  S
C3858      H3866   1.083       .  S
C3859      C3860   1.207       .  T
C3861      C3862   1.207       .  T
C3867      C3875   1.438       .  S
C3867      C3868   1.400       .  A
C3867      C3872   1.402       .  A
C3868      C3869   1.398       .  A
C3868      H3877   1.084       .  S
C3869      C3870   1.401       .  A
C3869      H3878   1.084       .  S
C3870      C3873   1.438       .  S
C3870      C3871   1.401       .  A
C3871      C3872   1.399       .  A
C3871      H3879   1.084       .  S
C3872      H3880   1.084       .  S
C3873      C3874   1.205       .  T
C3875      C3876   1.205       .  T
C3881      C3889   1.437       .  S
C3881      C3882   1.401       .  A
C3881      C3886   1.400       .  A
C3882      C3883   1.397       .  A
C3882      H3891   1.084       .  S
C3883      C3884   1.399       .  A
C3883      H3892   1.084       .  S
C3884      C3887   1.437       .  S
C3884      C3885   1.402       .  A
C3885      C3886   1.399       .  A
C3885      H3893   1.084       .  S
C3886      H3894   1.083       .  S
C3887      C3888   1.204       .  T
C3889      C3890   1.204       .  T
C3895      C3903   1.441       .  S
C3895      C3896   1.401       .  A
C3895      C3900   1.402       .  A
C3896      C3897   1.400       .  A
C3896      H3905   1.083       .  S
C3897      C3898   1.402       .  A
C3897      H3906   1.084       .  S
C3898      C3901   1.441       .  S
C3898      C3899   1.401       .  A
C3899      C3900   1.400       .  A
C3899      H3907   1.083       .  S
C3900      H3908   1.083       .  S
C3901      C3902   1.207       .  T
C3903      C3904   1.207       .  T
C3909      C3917   1.443       .  S
C3909      C3910   1.402       .  A
C3909      C3914   1.402       .  A
C3910      C3911   1.400       .  A
C3910      H3919   1.083       .  S
C3911      C3912   1.401       .  A
C3911      H3920   1.083       .  S
C3912      C3915   1.441       .  S
C3912      C3913   1.402       .  A
C3913      C3914   1.400       .  A
C3913      H3921   1.083       .  S
C3914      H3922   1.083       .  S
C3915      C3916   1.207       .  T
C3917      C3918   1.208       .  T
C3923      C3931   1.441       .  S
C3923      C3924   1.402       .  A
C3923      C3928   1.401       .  A
C3924      C3925   1.400       .  A
C3924      H3933   1.083       .  S
C3925      C3926   1.401       .  A
C3925      H3934   1.084       .  S
C3926      C3929   1.441       .  S
C3926      C3927   1.402       .  A
C3927      C3928   1.399       .  A
C3927      H3935   1.083       .  S
C3928      H3936   1.083       .  S
C3929      C3930   1.207       .  T
C3931      C3932   1.207       .  T
C3937      C3945   1.443       .  S
C3937      C3938   1.402       .  A
C3937      C3942   1.402       .  A
C3938      C3939   1.400       .  A
C3938      H3947   1.083       .  S
C3939      C3940   1.402       .  A
C3939      H3948   1.084       .  S
C3940      C3943   1.443       .  S
C3940      C3941   1.402       .  A
C3941      C3942   1.400       .  A
C3941      H3949   1.083       .  S
C3942      H3950   1.084       .  S
C3943      C3944   1.208       .  T
C3945      C3946   1.208       .  T
C3951      C3959   1.440       .  S
C3951      C3952   1.401       .  A
C3951      C3956   1.401       .  A
C3952      C3953   1.399       .  A
C3952      H3961   1.083       .  S
C3953      C3954   1.401       .  A
C3953      H3962   1.083       .  S
C3954      C3957   1.440       .  S
C3954      C3955   1.401       .  A
C3955      C3956   1.399       .  A
C3955      H3963   1.083       .  S
C3956      H3964   1.083       .  S
C3957      C3958   1.206       .  T
C3959      C3960   1.206       .  T
C3965      C3973   1.441       .  S
C3965      C3966   1.401       .  A
C3965      C3970   1.401       .  A
C3966      C3967   1.399       .  A
C3966      H3975   1.083       .  S
C3967      C3968   1.401       .  A
C3967      H3976   1.084       .  S
C3968      C3971   1.441       .  S
C3968      C3969   1.402       .  A
C3969      C3970   1.400       .  A
C3969      H3977   1.083       .  S
C3970      H3978   1.084       .  S
C3971      C3972   1.207       .  T
C3973      C3974   1.206       .  T
C3979      C3987   1.438       .  S
C3979      C3980   1.402       .  A
C3979      C3984   1.400       .  A
C3980      C3981   1.399       .  A
C3980      H3989   1.084       .  S
C3981      C3982   1.401   1_655  A
C3981      H3990   1.083   1_655  S
C3982      C3985   1.438       .  S
C3982      C3983   1.402       .  A
C3983      C3984   1.398   1_455  A
C3983      H3991   1.084       .  S
C3984      H3992   1.084       .  S
C3985      C3986   1.205       .  T
C3987      C3988   1.205       .  T
C3993      C4001   1.440       .  S
C3993      C3994   1.400       .  A
C3993      C3998   1.403       .  A
C3994      C3995   1.398       .  A
C3994      H4003   1.083       .  S
C3995      C3996   1.402       .  A
C3995      H4004   1.084       .  S
C3996      C3999   1.439       .  S
C3996      C3997   1.401       .  A
C3997      C3998   1.400       .  A
C3997      H4005   1.083       .  S
C3998      H4006   1.084       .  S
C3999      C4000   1.206       .  T
C4001      C4002   1.206       .  T
C4007      C4015   1.443       .  S
C4007      C4008   1.403       .  A
C4007      C4012   1.401       .  A
C4008      C4009   1.400       .  A
C4008      H4017   1.083       .  S
C4009      C4010   1.401       .  A
C4009      H4018   1.083       .  S
C4010      C4013   1.443       .  S
C4010      C4011   1.403       .  A
C4011      C4012   1.400       .  A
C4011      H4019   1.083       .  S
C4012      H4020   1.084       .  S
C4013      C4014   1.208       .  T
C4015      C4016   1.208       .  T
C4021      C4029   1.442       .  S
C4021      C4022   1.401       .  A
C4021      C4026   1.402       .  A
C4022      C4023   1.400       .  A
C4022      H4031   1.083       .  S
C4023      C4024   1.402       .  A
C4023      H4032   1.083       .  S
C4024      C4027   1.442       .  S
C4024      C4025   1.402       .  A
C4025      C4026   1.400       .  A
C4025      H4033   1.083       .  S
C4026      H4034   1.083       .  S
C4027      C4028   1.207       .  T
C4029      C4030   1.207       .  T
C4035      C4043   1.441       .  S
C4035      C4036   1.402       .  A
C4035      C4040   1.401       .  A
C4036      C4037   1.400       .  A
C4036      H4045   1.084       .  S
C4037      C4038   1.401       .  A
C4037      H4046   1.083       .  S
C4038      C4041   1.441       .  S
C4038      C4039   1.402       .  A
C4039      C4040   1.399       .  A
C4039      H4047   1.084       .  S
C4040      H4048   1.083       .  S
C4041      C4042   1.207       .  T
C4043      C4044   1.207       .  T
C4049      C4057   1.443       .  S
C4049      C4050   1.401       .  A
C4049      C4054   1.403       .  A
C4050      C4051   1.400       .  A
C4050      H4059   1.083       .  S
C4051      C4052   1.403       .  A
C4051      H4060   1.083       .  S
C4052      C4055   1.443       .  S
C4052      C4053   1.401       .  A
C4053      C4054   1.400       .  A
C4053      H4061   1.084       .  S
C4054      H4062   1.083       .  S
C4055      C4056   1.208       .  T
C4057      C4058   1.208       .  T
C4063      C4071   1.441       .  S
C4063      C4064   1.401       .  A
C4063      C4068   1.402       .  A
C4064      C4065   1.399       .  A
C4064      H4073   1.083       .  S
C4065      C4066   1.402       .  A
C4065      H4074   1.083       .  S
C4066      C4069   1.440       .  S
C4066      C4067   1.401       .  A
C4067      C4068   1.399       .  A
C4067      H4075   1.083       .  S
C4068      H4076   1.083       .  S
C4069      C4070   1.206       .  T
C4071      C4072   1.207       .  T
C4077      C4085   1.439       .  S
C4077      C4078   1.401       .  A
C4077      C4082   1.401       .  A
C4078      C4079   1.399       .  A
C4078      H4087   1.083       .  S
C4079      C4080   1.402       .  A
C4079      H4088   1.083       .  S
C4080      C4083   1.440       .  S
C4080      C4081   1.401       .  A
C4081      C4082   1.398       .  A
C4081      H4089   1.083       .  S
C4082      H4090   1.083       .  S
C4083      C4084   1.206       .  T
C4085      C4086   1.205       .  T
C4091      C4099   1.442       .  S
C4091      C4092   1.402       .  A
C4091      C4096   1.401       .  A
C4092      C4093   1.400       .  A
C4092      H4101   1.083       .  S
C4093      C4094   1.401       .  A
C4093      H4102   1.084       .  S
C4094      C4097   1.441       .  S
C4094      C4095   1.402       .  A
C4095      C4096   1.400       .  A
C4095      H4103   1.083       .  S
C4096      H4104   1.083       .  S
C4097      C4098   1.207       .  T
C4099      C4100   1.207       .  T
C4105      C4113   1.438       .  S
C4105      C4106   1.402       .  A
C4105      C4110   1.401       .  A
C4106      C4107   1.398       .  A
C4106      H4115   1.084       .  S
C4107      C4108   1.400       .  A
C4107      H4116   1.084       .  S
C4108      C4111   1.438       .  S
C4108      C4109   1.402       .  A
C4109      C4110   1.399       .  A
C4109      H4117   1.084       .  S
C4110      H4118   1.083       .  S
C4111      C4112   1.205       .  T
C4113      C4114   1.205       .  T
C4119      C4127   1.439       .  S
C4119      C4120   1.402       .  A
C4119      C4124   1.400       .  A
C4120      C4121   1.399       .  A
C4120      H4129   1.084       .  S
C4121      C4122   1.400       .  A
C4121      H4130   1.083       .  S
C4122      C4125   1.439       .  S
C4122      C4123   1.402       .  A
C4123      C4124   1.398       .  A
C4123      H4131   1.084       .  S
C4124      H4132   1.084       .  S
C4125      C4126   1.205       .  T
C4127      C4128   1.205       .  T
C4133      C4141   1.442       .  S
C4133      C4134   1.403       .  A
C4133      C4138   1.401       .  A
C4134      C4135   1.400       .  A
C4134      H4143   1.083       .  S
C4135      C4136   1.401       .  A
C4135      H4144   1.083   1_455  S
C4136      C4139   1.443       .  S
C4136      C4137   1.403       .  A
C4137      C4138   1.400       .  A
C4137      H4145   1.083       .  S
C4138      H4146   1.084       .  S
C4139      C4140   1.208       .  T
C4141      C4142   1.207       .  T
C4147      C4155   1.439       .  S
C4147      C4148   1.401       .  A
C4147      C4152   1.401       .  A
C4148      C4149   1.398       .  A
C4148      H4157   1.083       .  S
C4149      C4150   1.400       .  A
C4149      H4158   1.083       .  S
C4150      C4153   1.440       .  S
C4150      C4151   1.402       .  A
C4151      C4152   1.400       .  A
C4151      H4159   1.083       .  S
C4152      H4160   1.083       .  S
C4153      C4154   1.206       .  T
C4155      C4156   1.206       .  T
