geometry optimzed in LAMMPS
_audit_creation_date              2020-12-01 
_audit_creation_method            'lammps2cif' 
_symmetry_space_group_name_H-M    'P1' 
_symmetry_Int_Tables_number       1 
_symmetry_cell_setting            triclinic 
loop_ 
_symmetry_equiv_pos_as_xyz 
  x,y,z 
_cell_length_a                    35.65380983 
_cell_length_b                    35.59989677721276 
_cell_length_c                    28.39980299913564 
_cell_angle_alpha                 90.2123364700964 
_cell_angle_beta                  90.09108028064288 
_cell_angle_gamma                 89.81824678395435 
loop_ 
_atom_site_label 
_atom_site_type_symbol 
_atom_site_fract_x 
_atom_site_fract_y 
_atom_site_fract_z 
_atom_site_charge 
O1          O  0.80251720  0.81437071  0.41448142    -0.84900
O2          O  0.72639472  0.80280090  0.43518163    -0.82000
C3          C  0.72374311  0.82196786  0.47239202     0.98500
O4          O  0.72488757  0.85734791  0.46986284    -0.82000
O5          O  0.74117988  0.92789133  0.43553430    -0.84700
C6          C  0.77582628  0.93463769  0.43858383     1.03000
O7          O  0.79936466  0.91699767  0.41353730    -0.77400
O8          O  0.82840899  0.85510772  0.36671768    -0.77600
C9          C  0.83135557  0.83152108  0.39975514     1.03000
O10         O  0.78437984  0.81158130  0.31706242    -0.84900
O11         O  0.70882892  0.81241207  0.33803072    -0.82000
C12         C  0.67771733  0.82486486  0.35275775     0.98500
O13         O  0.67700680  0.84473430  0.38970096    -0.82000
O14         O  0.69682131  0.91422035  0.35388932    -0.84600
C15         C  0.71814085  0.93657990  0.33215078     1.03000
O16         O  0.75327861  0.93339225  0.33501585    -0.77500
O17         O  0.77642421  0.86823471  0.28998062    -0.77600
C18         C  0.78246930  0.83373375  0.28273402     1.03000
Cr19       Cr  0.75520121  0.81402189  0.37669049     1.93700
Cr20       Cr  0.71301660  0.88432111  0.40998080     1.93200
Cr21       Cr  0.78665700  0.89119695  0.35328371     1.39100
O22         O  0.75169722  0.86359692  0.38030390    -1.22700
O23         O  0.80692452  0.70213247  0.84214756    -0.84900
O24         O  0.73010156  0.71147056  0.82499574    -0.82000
C25         C  0.72781593  0.69141290  0.78872322     0.98500
O26         O  0.73000770  0.65616069  0.79250311    -0.82000
O27         O  0.75182699  0.58734315  0.82718650    -0.84700
C28         C  0.78662997  0.58144695  0.82361517     1.03000
O29         O  0.80988587  0.59982168  0.84829854    -0.77400
O30         O  0.83644409  0.66435996  0.89040840    -0.77600
C31         C  0.83705798  0.68649433  0.85571008     1.03000
O32         O  0.79132045  0.70798283  0.94035579    -0.84900
O33         O  0.71444859  0.70501275  0.92176395    -0.82000
C34         C  0.68363307  0.69070384  0.90835247     0.98500
O35         O  0.68354513  0.66658089  0.87544502    -0.82000
O36         O  0.70904515  0.59909633  0.91042350    -0.84600
C37         C  0.73202050  0.57790637  0.93159833     1.03000
O38         O  0.76676883  0.58394206  0.92921396    -0.77500
O39         O  0.78778348  0.65207156  0.97068504    -0.77600
C40         C  0.79155283  0.68719899  0.97606148     1.03000
Cr41       Cr  0.76075058  0.70255273  0.88224145     1.93700
Cr42       Cr  0.72167560  0.62937076  0.85357037     1.93200
Cr43       Cr  0.79712417  0.62727236  0.90782633     1.39100
O44         O  0.75967424  0.65263272  0.88133184    -1.22700
O45         O  0.20405143  0.79508529  0.68046862    -0.84900
O46         O  0.20666086  0.72121576  0.65451072    -0.82000
C47         C  0.19252757  0.68980307  0.64402685     0.98500
O48         O  0.16608764  0.68778889  0.61441036    -0.82000
O49         O  0.10244489  0.71213275  0.66168242    -0.84700
C50         C  0.07988175  0.73476447  0.68128322     1.03000
O51         O  0.08090446  0.76891509  0.67049683    -0.77400
O52         O  0.14800355  0.79124627  0.71155347    -0.77600
C53         C  0.18304583  0.79515715  0.71640465     1.03000
O54         O  0.19401989  0.81623443  0.58284830    -0.84900
O55         O  0.20365257  0.74253788  0.55657314    -0.82000
C56         C  0.17976849  0.73644593  0.52454430     0.98500
O57         O  0.14544291  0.73294585  0.53436028    -0.82000
O58         O  0.08005041  0.75302812  0.57859257    -0.84600
C59         C  0.07527715  0.78774708  0.57136189     1.03000
O60         O  0.09622288  0.81197092  0.59048637    -0.77500
O61         O  0.15852649  0.84201508  0.63617006    -0.77600
C62         C  0.17825870  0.84505131  0.59981075     1.03000
Cr63       Cr  0.19843630  0.76842739  0.61877293     1.93700
Cr64       Cr  0.12550307  0.72449698  0.59912393     1.93200
Cr65       Cr  0.12306314  0.80065673  0.65004764     1.39100
O66         O  0.14907481  0.76428211  0.62249386    -1.22700
O67         O  0.30832707  0.76760396  0.19385800    -0.84900
O68         O  0.30746792  0.82361977  0.12935046    -0.82000
C69         C  0.33314233  0.84620127  0.14224838     0.98500
O70         O  0.36694719  0.83869430  0.13355146    -0.82000
O71         O  0.43043397  0.79550988  0.13427230    -0.84700
C72         C  0.43381556  0.78336797  0.17598881     1.03000
O73         O  0.40838566  0.76317429  0.19326173    -0.77400
O74         O  0.34472538  0.71857109  0.20196572    -0.77600
C75         C  0.31907534  0.73990254  0.21754769     1.03000
O76         O  0.30229942  0.71044069  0.12112958    -0.84900
O77         O  0.30528435  0.76547312  0.05581532    -0.82000
C78         C  0.31931110  0.78936945  0.02881801     0.98500
O79         O  0.34590682  0.81009698  0.04266475    -0.82000
O80         O  0.40649837  0.76091503  0.04824855    -0.84600
C81         C  0.43077889  0.73863009  0.06455796     1.03000
O82         O  0.42743857  0.72686684  0.10643409    -0.77500
O83         O  0.35995062  0.69053707  0.10928041    -0.77600
C84         C  0.32512128  0.68519818  0.10736721     1.03000
Cr85       Cr  0.30957332  0.76679670  0.12469309     1.93700
Cr86       Cr  0.38518697  0.79884023  0.09181574     1.93200
Cr87       Cr  0.38317440  0.72753476  0.15081935     1.39100
O88         O  0.35909930  0.76448408  0.12248169    -1.22700
O89         O  0.29157376  0.20450190  0.32982845    -0.84900
O90         O  0.21547137  0.21323439  0.31165492    -0.82000
C91         C  0.21418931  0.19254169  0.27585589     0.98500
O92         O  0.21907439  0.15767436  0.28107391    -0.82000
O93         O  0.24032615  0.09022127  0.32251842    -0.84700
C94         C  0.27514990  0.08372673  0.32454571     1.03000
O95         O  0.29687135  0.10350002  0.34937782    -0.77400
O96         O  0.32057545  0.17153066  0.38353826    -0.77600
C97         C  0.32146724  0.18951627  0.34509968     1.03000
O98         O  0.27652136  0.21620286  0.42705119    -0.84900
O99         O  0.19967768  0.20992710  0.40859202    -0.82000
C100        C  0.16947714  0.19449962  0.39499078     0.98500
O101        O  0.16950759  0.17134548  0.36087120    -0.82000
O102        O  0.19318564  0.10586872  0.40061787    -0.84600
C103        C  0.21475058  0.08769337  0.42742224     1.03000
O104        O  0.24956762  0.09377756  0.42853220    -0.77500
O105        O  0.26903883  0.16323612  0.46274850    -0.77600
C106        C  0.27401353  0.19820708  0.46483534     1.03000
Cr107      Cr  0.24584113  0.20735653  0.36951008     1.93700
Cr108      Cr  0.20849391  0.13328176  0.34322774     1.93200
Cr109      Cr  0.28125444  0.13489289  0.40385372     1.39100
O110        O  0.24505490  0.15781331  0.37218721    -1.22700
O111        O  0.18825512  0.31988338  0.87144252    -0.84900
O112        O  0.24417718  0.31886170  0.80750686    -0.82000
C113        C  0.26957578  0.33069620  0.78102804     0.98500
O114        O  0.29222425  0.35525698  0.79652203    -0.82000
O115        O  0.24960708  0.41916850  0.80254602    -0.84700
C116        C  0.22891345  0.44513401  0.81763011     1.03000
O117        O  0.21556164  0.44313622  0.85888240    -0.77400
O118        O  0.17331739  0.37875739  0.85863048    -0.77600
C119        C  0.16615028  0.34434965  0.85404740     1.03000
O120        O  0.24599355  0.32167116  0.94492870    -0.84900
O121        O  0.30139687  0.31459559  0.87967286    -0.82000
C122        C  0.32667427  0.33760815  0.89235155     0.98500
O123        O  0.32100388  0.37237504  0.88952499    -0.82000
O124        O  0.28410334  0.43952049  0.89109513    -0.84600
C125        C  0.27123034  0.44341403  0.93250946     1.03000
O126        O  0.24692818  0.42060361  0.94687432    -0.77500
O127        O  0.19864621  0.36034273  0.95255188    -0.77600
C128        C  0.22017271  0.33541440  0.96955689     1.03000
Cr129      Cr  0.24505069  0.32229804  0.87604121     1.93700
Cr130      Cr  0.28410238  0.39477879  0.84691678     1.93200
Cr131      Cr  0.21103322  0.39855651  0.90231141     1.39100
O132        O  0.24679428  0.37175788  0.87508418    -1.22700
O133        O  0.79692199  0.25886236  0.55779070    -0.84900
O134        O  0.79771753  0.20229789  0.62252207    -0.82000
C135        C  0.82125229  0.17763741  0.60863870     0.98500
O136        O  0.85581591  0.18421182  0.60917636    -0.82000
O137        O  0.92175301  0.22224851  0.60507461    -0.84700
C138        C  0.92338383  0.23448109  0.56334518     1.03000
O139        O  0.89874047  0.25677988  0.54845621    -0.77400
O140        O  0.83728790  0.30358249  0.54348146    -0.77600
C141        C  0.80972194  0.28349548  0.53069711     1.03000
O142        O  0.79937502  0.31611181  0.63156582    -0.84900
O143        O  0.80413460  0.25978445  0.69595596    -0.82000
C144        C  0.81646639  0.23275609  0.71964520     0.98500
O145        O  0.84105961  0.21098294  0.70247421    -0.82000
O146        O  0.90420015  0.25645447  0.69371379    -0.84600
C147        C  0.92718557  0.27960197  0.67687385     1.03000
O148        O  0.92320301  0.29185880  0.63520233    -0.77500
O149        O  0.85862388  0.33250307  0.63522107    -0.77600
C150        C  0.82460079  0.33999164  0.64194735     1.03000
Cr151      Cr  0.80331277  0.25917601  0.62670692     1.93700
Cr152      Cr  0.87853236  0.22133082  0.65065123     1.93200
Cr153      Cr  0.87741109  0.29351548  0.59278746     1.39100
O154        O  0.85289722  0.25810855  0.62336631    -1.22700
O155        O  0.69650249  0.22232292  0.06447753    -0.84900
O156        O  0.69067000  0.29890871  0.08226924    -0.82000
C157        C  0.67531474  0.32956858  0.09462611     0.98500
O158        O  0.65343525  0.32942233  0.12963421    -0.82000
O159        O  0.58849239  0.30394758  0.08566179    -0.84700
C160        C  0.56830130  0.28053506  0.06350343     1.03000
O161        O  0.57266483  0.24569939  0.06954404    -0.77400
O162        O  0.64090863  0.22495641  0.03256399    -0.77600
C163        C  0.67597907  0.22196108  0.02826082     1.03000
O164        O  0.68784157  0.20741568  0.16365695    -0.84900
O165        O  0.69438152  0.28370039  0.18175113    -0.82000
C166        C  0.67235386  0.28428292  0.21643035     0.98500
O167        O  0.63745494  0.28162712  0.20953172    -0.82000
O168        O  0.57064846  0.26168993  0.16714402    -0.84600
C169        C  0.56597265  0.22684588  0.17230853     1.03000
O170        O  0.58705802  0.20334323  0.15189104    -0.77500
O171        O  0.65313939  0.17672352  0.11325654    -0.77600
C172        C  0.67251619  0.17701519  0.15061837     1.03000
Cr173      Cr  0.68884973  0.25305499  0.12284034     1.93700
Cr174      Cr  0.61450932  0.29142430  0.14619900     1.93200
Cr175      Cr  0.61541441  0.21546935  0.09372363     1.39100
O176        O  0.63921375  0.25336264  0.12082813    -1.22700
C177        C  0.70503021  0.24334734  0.90200330    -0.05100
C178        C  0.73495199  0.21768986  0.89540039     0.09100
C179        C  0.74328040  0.19144272  0.93112346    -0.02400
C180        C  0.72232195  0.19125571  0.97329018    -0.00700
C181        C  0.69387467  0.21840173  0.98106464    -0.04300
C182        C  0.68527256  0.24440293  0.94507203     0.02700
C183        C  0.75867000  0.21958257  0.85170152     0.09500
C184        C  0.77417161  0.16526978  0.92501632     0.35400
C185        C  0.65809146  0.27409444  0.95351494     0.38900
C186        C  0.78283958  0.25046595  0.84462798    -0.04700
C187        C  0.80272985  0.25413984  0.80199015     0.02500
C188        C  0.80012509  0.22606170  0.76691967    -0.04300
C189        C  0.77805965  0.19386357  0.77525275    -0.00500
C190        C  0.75670466  0.19105606  0.81700331    -0.03100
C191        C  0.78719356  0.27861854  0.88125076     0.36200
C192        C  0.77607153  0.16431479  0.74003439     0.39800
C193        C  0.82587571  0.28697640  0.79406269     0.38900
C194        C  0.73174487  0.15942121  0.82358239     0.35800
C195        C  0.69498170  0.26916610  0.86461186     0.36500
C196        C  0.72994776  0.16287859  0.00862470     0.39800
N197        N  0.84421468  0.31321568  0.78759385    -0.38300
N198        N  0.79087294  0.30112618  0.91037101    -0.39900
N199        N  0.77456279  0.14057437  0.71215298    -0.37600
N200        N  0.71183741  0.13418135  0.82890884    -0.40000
N201        N  0.79880694  0.14439824  0.92000673    -0.39800
N202        N  0.73588846  0.14014266  0.03671788    -0.37400
N203        N  0.63674767  0.29803784  0.96046149    -0.38500
N204        N  0.68694999  0.28972695  0.83475333    -0.40100
C205        C  0.78928303  0.28252851  0.39823731    -0.05100
C206        C  0.75038433  0.29059840  0.39744257     0.09100
C207        C  0.73207415  0.29945641  0.44013388    -0.02400
C208        C  0.75192813  0.29854843  0.48329295    -0.00700
C209        C  0.79056332  0.28931528  0.48435739    -0.04300
C210        C  0.80937952  0.28234149  0.44140322     0.02700
C211        C  0.72860897  0.28981090  0.35173518     0.09500
C212        C  0.69266063  0.30960240  0.43955105     0.35400
C213        C  0.84919300  0.27393389  0.44165106     0.38900
C214        C  0.70558000  0.25877658  0.34023789    -0.04700
C215        C  0.68574099  0.25771744  0.29697065     0.02500
C216        C  0.68853446  0.28779094  0.26480426    -0.04300
C217        C  0.71074475  0.31925295  0.27687323    -0.00500
C218        C  0.73074224  0.32019582  0.31997899    -0.03100
C219        C  0.70306322  0.22743841  0.37252764     0.36200
C220        C  0.71262997  0.35095481  0.24502435     0.39800
C221        C  0.66382881  0.22485116  0.28455610     0.38900
C222        C  0.75388792  0.35234318  0.33158538     0.35800
C223        C  0.80842348  0.27357229  0.35460033     0.36500
C224        C  0.73267840  0.30782603  0.52679775     0.39800
N225        N  0.64635952  0.19866361  0.27450312    -0.38300
N226        N  0.70101977  0.20244883  0.39833566    -0.39900
N227        N  0.71389701  0.37629301  0.21966372    -0.37600
N228        N  0.77254491  0.37786432  0.34088537    -0.40000
N229        N  0.66122083  0.31776454  0.43897154    -0.39800
N230        N  0.71748311  0.31535957  0.56156772    -0.37400
N231        N  0.88101925  0.26742587  0.44158289    -0.38500
N232        N  0.82360065  0.26641806  0.31969516    -0.40100
C233        C  0.49731861  0.27929262  0.96312793    -0.05100
C234        C  0.46974137  0.30411616  0.98036895     0.09100
C235        C  0.47637632  0.32437120  0.02236747    -0.02400
C236        C  0.51010510  0.31909671  0.04777220    -0.00700
C237        C  0.53707138  0.29268634  0.03191993    -0.04300
C238        C  0.53068676  0.27333259  0.98884344     0.02700
C239        C  0.43370328  0.30937064  0.95400220     0.09500
C240        C  0.44775287  0.34972669  0.04017704     0.35400
C241        C  0.55813831  0.24674604  0.97090460     0.38900
C242        C  0.40169336  0.28813941  0.96575805    -0.04700
C243        C  0.36685689  0.29564596  0.94379624     0.02500
C244        C  0.36392340  0.32463013  0.90998238    -0.04300
C245        C  0.39681370  0.34392634  0.89597040    -0.00500
C246        C  0.43145399  0.33627770  0.91791546    -0.03100
C247        C  0.40465692  0.25886274  0.00095294     0.36200
C248        C  0.39522706  0.37179493  0.85880788     0.39800
C249        C  0.33392735  0.27463288  0.95772384     0.38900
C250        C  0.46489479  0.35638055  0.90370707     0.35800
C251        C  0.49083582  0.25922774  0.91930272     0.36500
C252        C  0.51591794  0.33935973  0.09155377     0.39800
N253        N  0.30777128  0.25773395  0.96898560    -0.38300
N254        N  0.40714240  0.23540842  0.02890333    -0.39900
N255        N  0.39399506  0.39417632  0.82938973    -0.37600
N256        N  0.49161813  0.37225108  0.89222350    -0.40000
N257        N  0.42467794  0.36969372  0.05434825    -0.39800
N258        N  0.52053218  0.35563351  0.12642622    -0.37400
N259        N  0.57957316  0.22526513  0.95615171    -0.38500
N260        N  0.48557681  0.24330604  0.88432109    -0.40100
C261        C  0.08667699  0.34525627  0.76351661    -0.05100
C262        C  0.06338256  0.31623660  0.77994707     0.09100
C263        C  0.07465061  0.29501180  0.81948905    -0.02400
C264        C  0.10882711  0.30295970  0.84275982    -0.00700
C265        C  0.13134819  0.33337917  0.82791039    -0.04300
C266        C  0.12026928  0.35400525  0.78739897     0.02700
C267        C  0.02787044  0.30682899  0.75403322     0.09500
C268        C  0.05084690  0.26495491  0.83631490     0.35400
C269        C  0.14433983  0.38300140  0.76824931     0.38900
C270        C  0.02609346  0.27398568  0.72614602    -0.04700
C271        C  0.99263463  0.26452383  0.70249050     0.02500
C272        C  0.96142281  0.28908819  0.70395891    -0.04300
C273        C  0.96346192  0.32252935  0.73059417    -0.00500
C274        C  0.99630551  0.33095547  0.75647463    -0.03100
C275        C  0.05909696  0.25036591  0.72086814     0.36200
C276        C  0.93177540  0.34818473  0.73130471     0.39800
C277        C  0.99047845  0.22926052  0.67686071     0.38900
C278        C  0.99767830  0.36439206  0.78571212     0.35800
C279        C  0.07639772  0.36563644  0.72119567     0.36500
C280        C  0.12062246  0.27948443  0.88168643     0.39800
N281        N  0.98926928  0.20078798  0.65712491    -0.38300
N282        N  0.08549704  0.23168953  0.71646884    -0.39900
N283        N  0.90655354  0.36873407  0.73161454    -0.37600
N284        N  0.99886699  0.39105851  0.80908862    -0.40000
N285        N  0.03182456  0.24094427  0.84956736    -0.39800
N286        N  0.13004091  0.26014708  0.91219333    -0.37400
N287        N  0.16334493  0.40602758  0.75246929    -0.38500
N288        N  0.06817825  0.38185563  0.68745843    -0.40100
C289        C  0.39742219  0.22299571  0.25909541    -0.05100
C290        C  0.42750846  0.19910686  0.27094190     0.09100
C291        C  0.42285167  0.17148267  0.30555164    -0.02400
C292        C  0.38830688  0.16788930  0.32906104    -0.00700
C293        C  0.35794496  0.19288858  0.31894531    -0.04300
C294        C  0.36282824  0.22013943  0.28292604     0.02700
C295        C  0.46456145  0.20332363  0.24726683     0.09500
C296        C  0.45388873  0.14648976  0.31671145     0.35400
C297        C  0.33270955  0.24560815  0.26991739     0.38900
C298        C  0.49274830  0.22525413  0.26857038    -0.04700
C299        C  0.52725048  0.23053787  0.24554187     0.02500
C300        C  0.53343825  0.21452377  0.20054498    -0.04300
C301        C  0.50551793  0.19160139  0.17990958    -0.00500
C302        C  0.47133775  0.18564377  0.20359690    -0.03100
C303        C  0.48575433  0.24321173  0.31368206     0.36200
C304        C  0.51063019  0.17647831  0.13285412     0.39800
C305        C  0.55620648  0.25286118  0.26809231     0.38900
C306        C  0.44260935  0.16213764  0.18261386     0.35800
C307        C  0.40225655  0.25064072  0.22215930     0.36500
C308        C  0.38443393  0.13734789  0.36246424     0.39800
N309        N  0.57905490  0.27069564  0.28649280    -0.38300
N310        N  0.48008316  0.25760704  0.34958563    -0.39900
N311        N  0.51443991  0.16463675  0.09515184    -0.37600
N312        N  0.41960501  0.14337385  0.16608410    -0.40000
N313        N  0.47868281  0.12665942  0.32553878    -0.39800
N314        N  0.38170047  0.11287614  0.38895593    -0.37400
N315        N  0.30873523  0.26586324  0.25919798    -0.38500
N316        N  0.40614810  0.27252797  0.19255079    -0.40100
C317        C  0.00488352  0.18407079  0.50377042    -0.07500
C318        C  0.02552216  0.21492030  0.48670460     0.09100
C319        C  0.01166408  0.25170238  0.49271772    -0.02400
C320        C  0.97741328  0.25779927  0.51600841    -0.00700
C321        C  0.95711376  0.22705907  0.53442375    -0.04300
C322        C  0.97097960  0.19014886  0.52829224     0.02700
C323        C  0.06249118  0.20917808  0.46319586     0.09500
C324        C  0.03334553  0.28340447  0.47599342     0.35400
C325        C  0.95027906  0.15849700  0.54692164     0.38900
C326        C  0.06487555  0.20978824  0.41372225    -0.04700
C327        C  0.10004501  0.20686558  0.39146449     0.02500
C328        C  0.13318023  0.20270238  0.41865623    -0.04300
C329        C  0.13058986  0.20219794  0.46841141    -0.00500
C330        C  0.09534203  0.20563474  0.49051779    -0.03100
C331        C  0.03093469  0.21321925  0.38576486     0.36200
C332        C  0.16374756  0.19632241  0.49711959     0.39800
C333        C  0.10192734  0.20856652  0.34046015     0.38900
C334        C  0.09267851  0.20532461  0.54151439     0.35800
C335        C  0.01865699  0.14618316  0.49606733     0.36500
C336        C  0.96418106  0.29603354  0.52306308     0.39800
N337        N  0.10320482  0.20979626  0.29977755    -0.38300
N338        N  0.00382736  0.21588226  0.36354219    -0.39900
N339        N  0.18989397  0.19152858  0.52053666    -0.37600
N340        N  0.09037345  0.20504152  0.58215624    -0.40000
N341        N  0.05077935  0.30860233  0.46275971    -0.39800
N342        N  0.95359485  0.32648912  0.52866069    -0.37400
N343        N  0.93377664  0.13329944  0.56194412    -0.38500
N344        N  0.02962296  0.11595772  0.48971279    -0.40100
C345        C  0.24365523  0.29216455  0.08764689    -0.05100
C346        C  0.20919246  0.27528851  0.09948080     0.09100
C347        C  0.17702825  0.28277255  0.07188181    -0.02400
C348        C  0.17962555  0.30592681  0.03175764    -0.00700
C349        C  0.21481772  0.31998387  0.01758045    -0.04300
C350        C  0.24647576  0.31439439  0.04686221     0.02700
C351        C  0.20636534  0.25192610  0.14311139     0.09500
C352        C  0.14140724  0.26598754  0.08432710     0.35400
C353        C  0.28174752  0.33260709  0.03575435     0.38900
C354        C  0.19088413  0.26771590  0.18417493    -0.04700
C355        C  0.19124256  0.24746722  0.22670553     0.02500
C356        C  0.20735955  0.21073854  0.22882531    -0.04300
C357        C  0.21971276  0.19381117  0.18625484    -0.00500
C358        C  0.22020378  0.21474842  0.14398713    -0.03100
C359        C  0.17552740  0.30555964  0.18287089     0.36200
C360        C  0.23176762  0.15491198  0.18527753     0.39800
C361        C  0.17462360  0.26506915  0.26796870     0.38900
C362        C  0.23602023  0.19845852  0.10151646     0.35800
C363        C  0.27625519  0.28658234  0.11749902     0.36500
C364        C  0.14611011  0.31518769  0.00523247     0.39800
N365        N  0.16152436  0.27950948  0.30064807    -0.38300
N366        N  0.16318740  0.33564658  0.18158052    -0.39900
N367        N  0.24059063  0.12361983  0.18390194    -0.37600
N368        N  0.24901228  0.18563160  0.06775502    -0.40000
N369        N  0.11300813  0.25252312  0.09423059    -0.39800
N370        N  0.11920100  0.32324766  0.98473704    -0.37400
N371        N  0.30974347  0.34738099  0.02700599    -0.38500
N372        N  0.30226370  0.28209512  0.14128020    -0.40100
C373        C  0.26682707  0.27663826  0.55638386    -0.05100
C374        C  0.28298742  0.25959370  0.59615873     0.09100
C375        C  0.29695113  0.22258381  0.59311162    -0.02400
C376        C  0.29437186  0.20233469  0.55037663    -0.00700
C377        C  0.27719558  0.21894143  0.51047566    -0.04300
C378        C  0.26329324  0.25634960  0.51400491     0.02700
C379        C  0.28007255  0.27871874  0.64285856     0.09500
C380        C  0.31317084  0.20514227  0.63453221     0.35400
C381        C  0.24326779  0.27369328  0.47511894     0.38900
C382        C  0.24652305  0.27561047  0.66831469    -0.04700
C383        C  0.24271068  0.29321783  0.71246187     0.02500
C384        C  0.27298505  0.31429255  0.73225010    -0.04300
C385        C  0.30639885  0.31817174  0.70531803    -0.00500
C386        C  0.30979143  0.30036774  0.66091661    -0.03100
C387        C  0.21557664  0.25406723  0.64861584     0.36200
C388        C  0.33784236  0.33994064  0.72280320     0.39800
C389        C  0.20705107  0.28920480  0.73647806     0.38900
C390        C  0.34386172  0.30426008  0.63355886     0.35800
C391        C  0.25259501  0.31482831  0.55976375     0.36500
C392        C  0.30971992  0.16462447  0.54776956     0.39800
N393        N  0.17844355  0.28514414  0.75497391    -0.38300
N394        N  0.19102978  0.23702697  0.63270821    -0.39900
N395        N  0.36306183  0.35733677  0.73620072    -0.37600
N396        N  0.37105287  0.30739534  0.61170586    -0.40000
N397        N  0.32601744  0.19141187  0.66774265    -0.39800
N398        N  0.32191937  0.13448210  0.54598872    -0.37400
N399        N  0.22715680  0.28772677  0.44442031    -0.38500
N400        N  0.24125695  0.34525480  0.56255240    -0.40100
C401        C  0.34559228  0.93251887  0.22133659    -0.05100
C402        C  0.31135047  0.95148191  0.21530766     0.09100
C403        C  0.28329282  0.93570630  0.18637153    -0.02400
C404        C  0.28989890  0.90142731  0.16227692    -0.00700
C405        C  0.32448421  0.88208646  0.16811151    -0.04300
C406        C  0.35162099  0.89747660  0.19954202     0.02700
C407        C  0.30371418  0.98605855  0.24376087     0.09500
C408        C  0.24729755  0.95452380  0.18233093     0.35400
C409        C  0.38460987  0.87625028  0.21332588     0.38900
C410        C  0.31165305  0.02206530  0.22562803    -0.04700
C411        C  0.30486352  0.05438355  0.25337813     0.02500
C412        C  0.28970565  0.05064978  0.29889463    -0.04300
C413        C  0.28473250  0.01458883  0.31829001    -0.00500
C414        C  0.29127875  0.98237596  0.29063644    -0.03100
C415        C  0.32700989  0.02571181  0.17867415     0.36200
C416        C  0.27472038  0.01052341  0.36744762     0.39800
C417        C  0.31436228  0.09136070  0.23589909     0.38900
C418        C  0.28559047  0.94530917  0.31049715     0.35800
C419        C  0.37437342  0.94877304  0.25136832     0.36500
C420        C  0.26072832  0.88623565  0.13220059     0.39800
N421        N  0.32241968  0.12091571  0.22249217    -0.38300
N422        N  0.33936664  0.02858473  0.14121172    -0.39900
N423        N  0.26779758  0.00667450  0.40690849    -0.37600
N424        N  0.28124047  0.91571758  0.32627736    -0.40000
N425        N  0.21855335  0.96953859  0.17946149    -0.39800
N426        N  0.23713723  0.87421866  0.10855481    -0.37400
N427        N  0.41074876  0.85976118  0.22586036    -0.38500
N428        N  0.39727619  0.96180676  0.27522202    -0.40100
C429        C  0.27514292  0.61243531  0.03180749    -0.05100
C430        C  0.29735618  0.58040722  0.04096389     0.09100
C431        C  0.32526581  0.58171628  0.07602733    -0.02400
C432        C  0.33225403  0.61542915  0.10036154    -0.00700
C433        C  0.31186799  0.64844100  0.08901578    -0.04300
C434        C  0.28209148  0.64637409  0.05610960     0.02700
C435        C  0.29160167  0.54499788  0.01367125     0.09500
C436        C  0.34745292  0.54845141  0.08619501     0.35400
C437        C  0.25941339  0.67924858  0.04583758     0.38900
C438        C  0.30925934  0.54000269  0.96983870    -0.04700
C439        C  0.30439760  0.50631375  0.94419649     0.02500
C440        C  0.28147408  0.47696727  0.96240487    -0.04300
C441        C  0.26560778  0.48178531  0.00818949    -0.00500
C442        C  0.27016486  0.51584565  0.03296566    -0.03100
C443        C  0.33244973  0.56990395  0.95110241     0.36200
C444        C  0.24462874  0.45201990  0.03090357     0.39800
C445        C  0.32331492  0.50262503  0.89918347     0.38900
C446        C  0.25243160  0.52124035  0.07851185     0.35800
C447        C  0.24582495  0.61060578  0.99641747     0.36500
C448        C  0.36029449  0.61591193  0.13752228     0.39800
N449        N  0.33860923  0.50000786  0.86338318    -0.38300
N450        N  0.35087709  0.59381208  0.93632371    -0.39900
N451        N  0.22788146  0.42844667  0.04925717    -0.37600
N452        N  0.23829730  0.52568866  0.11477177    -0.40000
N453        N  0.36511482  0.52190003  0.09420359    -0.39800
N454        N  0.38260634  0.61632925  0.16716770    -0.37400
N455        N  0.24105063  0.70530109  0.03768733    -0.38500
N456        N  0.22253547  0.60913566  0.96804375    -0.40100
C457        C  0.15298674  0.94194087  0.55228409    -0.05100
C458        C  0.18699639  0.95283286  0.53161363     0.09100
C459        C  0.21876989  0.92926288  0.53473467    -0.02400
C460        C  0.21640565  0.89444938  0.55807531    -0.00700
C461        C  0.18189164  0.88264746  0.57749113    -0.04300
C462        C  0.15029382  0.90709699  0.57521156     0.02700
C463        C  0.18929665  0.98926832  0.50620508     0.09500
C464        C  0.25386025  0.94088340  0.51360814     0.35400
C465        C  0.11452844  0.89683141  0.59578437     0.38900
C466        C  0.20226782  0.02160943  0.52980568    -0.04700
C467        C  0.20751904  0.05520908  0.50471526     0.02500
C468        C  0.20012967  0.05638552  0.45589099    -0.04300
C469        C  0.18457990  0.02469171  0.43304633    -0.00500
C470        C  0.17908008  0.99119515  0.45830260    -0.03100
C471        C  0.21103753  0.01991779  0.57964626     0.36200
C472        C  0.17754969  0.02533709  0.38269870     0.39800
C473        C  0.22069508  0.08852603  0.52907371     0.38900
C474        C  0.16429465  0.95818404  0.43470115     0.35800
C475        C  0.12059801  0.96669868  0.54959347     0.36500
C476        C  0.24979756  0.87142440  0.56322225     0.39800
N477        N  0.23091201  0.11504889  0.54888836    -0.38300
N478        N  0.21803898  0.01844878  0.61940165    -0.39900
N479        N  0.17236235  0.02567950  0.34246382    -0.37600
N480        N  0.15242827  0.93180294  0.41606531    -0.40000
N481        N  0.28182557  0.95018686  0.49670677    -0.39800
N482        N  0.27648390  0.85313997  0.56741553    -0.37400
N483        N  0.08577643  0.88965873  0.61229161    -0.38500
N484        N  0.09478521  0.98641143  0.54743013    -0.40100
C485        C  0.20595168  0.78181621  0.84708704    -0.05100
C486        C  0.24161951  0.79872000  0.84983406     0.09100
C487        C  0.25610770  0.81760985  0.81042235    -0.02400
C488        C  0.23512540  0.81959522  0.76840898    -0.00700
C489        C  0.20071907  0.79982236  0.76394457    -0.04300
C490        C  0.18591049  0.78150812  0.80412098     0.02700
C491        C  0.26381564  0.79703912  0.89457442     0.09500
C492        C  0.29322362  0.83415133  0.81277707     0.35400
C493        C  0.15164338  0.75980510  0.80089085     0.38900
C494        C  0.28272727  0.76368212  0.90733454    -0.04700
C495        C  0.30180712  0.76153913  0.95077626     0.02500
C496        C  0.30325232  0.79320246  0.98093551    -0.04300
C497        C  0.28610560  0.82716788  0.96692667    -0.00500
C498        C  0.26579459  0.82883649  0.92431259    -0.03100
C499        C  0.28263351  0.73158364  0.87571371     0.36200
C500        C  0.28823780  0.86006513  0.99703263     0.39800
C501        C  0.32024897  0.72677445  0.96431942     0.38900
C502        C  0.24594335  0.86294215  0.91155177     0.35800
C503        C  0.19021831  0.76412130  0.88851420     0.36500
C504        C  0.24886418  0.84282852  0.73024808     0.39800
N505        N  0.33489840  0.69905834  0.97517600    -0.38300
N506        N  0.28287798  0.70589982  0.85061759    -0.39900
N507        N  0.29015213  0.88650058  0.02072582    -0.37600
N508        N  0.22993939  0.89001969  0.90121499    -0.40000
N509        N  0.32294900  0.84704482  0.81462022    -0.39800
N510        N  0.25970481  0.86156795  0.69999014    -0.37400
N511        N  0.12462044  0.74196049  0.79868222    -0.38500
N512        N  0.17771738  0.75016917  0.92168754    -0.40100
C513        C  0.21675965  0.69411710  0.41061437    -0.05100
C514        C  0.23573924  0.72526619  0.39129384     0.09100
C515        C  0.23095875  0.76103110  0.41203881    -0.02400
C516        C  0.20988101  0.76510987  0.45366379    -0.00700
C517        C  0.19346054  0.73351812  0.47518505    -0.04300
C518        C  0.19448601  0.69864093  0.45147909     0.02700
C519        C  0.25810563  0.72191289  0.34673117     0.09500
C520        C  0.24736837  0.79384719  0.39000969     0.35400
C521        C  0.17055194  0.66839933  0.46706514     0.38900
C522        C  0.23940080  0.72080195  0.30295656    -0.04700
C523        C  0.25971613  0.72519135  0.26077269     0.02500
C524        C  0.29896361  0.73105776  0.26196073    -0.04300
C525        C  0.31793165  0.73046840  0.30561237    -0.00500
C526        C  0.29759692  0.72545062  0.34783580    -0.03100
C527        C  0.19893905  0.71668109  0.30149632     0.36200
C528        C  0.35784239  0.73792265  0.30747102     0.39800
C529        C  0.23998970  0.72425412  0.21603378     0.38900
C530        C  0.31707990  0.72521759  0.39269181     0.35800
C531        C  0.22053480  0.65743318  0.38882658     0.36500
C532        C  0.20214467  0.80242182  0.47158406     0.39800
N533        N  0.22417818  0.72356350  0.18042038    -0.38300
N534        N  0.16667821  0.71326074  0.30057220    -0.39900
N535        N  0.38959546  0.74438026  0.30929330    -0.37600
N536        N  0.33261901  0.72496839  0.42849729    -0.40000
N537        N  0.26047567  0.81991310  0.37230177    -0.39800
N538        N  0.19532422  0.83274504  0.48356487    -0.37400
N539        N  0.15022158  0.64475261  0.47810352    -0.38500
N540        N  0.22365475  0.62809404  0.37156449    -0.40100
C541        C  0.18700665  0.53573771  0.76877792    -0.05100
C542        C  0.21715988  0.54932519  0.74180005     0.09100
C543        C  0.25040703  0.52816597  0.73788983    -0.02400
C544        C  0.25376543  0.49348366  0.76112667    -0.00700
C545        C  0.22376228  0.47982102  0.78914258    -0.04300
C546        C  0.19023898  0.50114605  0.79248557     0.02700
C547        C  0.21369355  0.58565185  0.71622582     0.09500
C548        C  0.28147923  0.54258020  0.71038682     0.35400
C549        C  0.15871376  0.48739349  0.81961487     0.38900
C550        C  0.21984051  0.61990381  0.73992030    -0.04700
C551        C  0.21604870  0.65422458  0.71561263     0.02500
C552        C  0.20536780  0.65444330  0.66746161    -0.04300
C553        C  0.20268169  0.61967714  0.64320898    -0.00500
C554        C  0.20591472  0.58554288  0.66768627    -0.03100
C555        C  0.22967210  0.61967148  0.78954714     0.36200
C556        C  0.19890373  0.61857207  0.59250539     0.39800
C557        C  0.22362777  0.68891017  0.74049867     0.38900
C558        C  0.20089177  0.55009894  0.64301262     0.35800
C559        C  0.15264209  0.55752255  0.77207213     0.36500
C560        C  0.28889273  0.47291995  0.75724587     0.39800
N561        N  0.23075809  0.71624366  0.76064474    -0.38300
N562        N  0.23739913  0.61932951  0.82914015    -0.39900
N563        N  0.19683730  0.61664291  0.55196776    -0.37600
N564        N  0.19690001  0.52180280  0.62347626    -0.40000
N565        N  0.30616793  0.55416688  0.68844381    -0.39800
N566        N  0.31689478  0.45659081  0.75386650    -0.37400
N567        N  0.13359209  0.47645536  0.84131966    -0.38500
N568        N  0.12529919  0.57500396  0.77470627    -0.40100
C569        C  0.60925293  0.72350600  0.99814599    -0.05100
C570        C  0.57587761  0.71200847  0.97572117     0.09100
C571        C  0.57749304  0.69656211  0.93018387    -0.02400
C572        C  0.61222140  0.69214589  0.90712629    -0.00700
C573        C  0.64652372  0.70124151  0.93049665    -0.04300
C574        C  0.64441093  0.71815471  0.97587666     0.02700
C575        C  0.53840591  0.71845166  0.99833801     0.09500
C576        C  0.54299337  0.68531650  0.90686156     0.35400
C577        C  0.67801492  0.73073381  0.99984858     0.38900
C578        C  0.51912166  0.75244798  0.99048111    -0.04700
C579        C  0.48313899  0.75836794  0.00985154     0.02500
C580        C  0.46598050  0.73015674  0.03772735    -0.04300
C581        C  0.48514558  0.69556775  0.04430680    -0.00500
C582        C  0.52117575  0.68985805  0.02476925    -0.03100
C583        C  0.53670622  0.78156146  0.96257606     0.36200
C584        C  0.46763504  0.66542682  0.07049656     0.39800
C585        C  0.46476433  0.79427169  0.00220982     0.38900
C586        C  0.54067047  0.65449669  0.03181916     0.35800
C587        C  0.60724039  0.74108289  0.04422655     0.36500
C588        C  0.61174566  0.67968167  0.85839080     0.39800
N589        N  0.45021189  0.82291864  0.99584311    -0.38300
N590        N  0.55091712  0.80466160  0.94034245    -0.39900
N591        N  0.45366094  0.64139017  0.09138277    -0.37600
N592        N  0.55623046  0.62628250  0.03741625    -0.40000
N593        N  0.51546158  0.67625819  0.88847659    -0.39800
N594        N  0.61099765  0.66990143  0.81949909    -0.37400
N595        N  0.70472985  0.74134007  0.01878349    -0.38500
N596        N  0.60554528  0.75528032  0.08087566    -0.40100
C597        C  0.91087463  0.70288028  0.75986452    -0.05100
C598        C  0.94440760  0.70162016  0.78623727     0.09100
C599        C  0.94279588  0.69600271  0.83524324    -0.02400
C600        C  0.90788077  0.69255863  0.85809620    -0.00700
C601        C  0.87385903  0.69352476  0.83181707    -0.04300
C602        C  0.87586297  0.69777679  0.78222577     0.02700
C603        C  0.98149526  0.70806886  0.76283217     0.09500
C604        C  0.97737845  0.69362354  0.86218097     0.35400
C605        C  0.84253162  0.69382858  0.75335515     0.38900
C606        C  0.99960242  0.74282664  0.76873517    -0.04700
C607        C  0.03396265  0.74975634  0.74614348     0.02500
C608        C  0.04958797  0.72278247  0.71451718    -0.04300
C609        C  0.03241873  0.68703481  0.71090192    -0.00500
C610        C  0.99862160  0.67972290  0.73527707    -0.03100
C611        C  0.98209033  0.77212060  0.79695560     0.36200
C612        C  0.04851727  0.65806408  0.68108746     0.39800
C613        C  0.05292032  0.78506598  0.75579076     0.38900
C614        C  0.98089006  0.64325549  0.73126690     0.35800
C615        C  0.91251849  0.70946372  0.70950968     0.36500
C616        C  0.90755080  0.68776403  0.90883340     0.39800
N617        N  0.06782318  0.81326878  0.76353101    -0.38300
N618        N  0.96805919  0.79548573  0.81930227    -0.39900
N619        N  0.06139880  0.63483792  0.65744946    -0.37600
N620        N  0.96664559  0.61419384  0.72806221    -0.40000
N621        N  0.00499695  0.69174955  0.88351927    -0.39800
N622        N  0.90768424  0.68355395  0.94922821    -0.37400
N623        N  0.81641972  0.68991890  0.72961852    -0.38500
N624        N  0.91398293  0.71479979  0.66937987    -0.40100
C625        C  0.78685534  0.51434280  0.71913986    -0.05100
C626        C  0.80775569  0.48395335  0.73722900     0.09100
C627        C  0.82637515  0.48795765  0.78090795    -0.02400
C628        C  0.82221206  0.52130112  0.80768965    -0.00700
C629        C  0.79890316  0.55070034  0.79121337    -0.04300
C630        C  0.78237660  0.54750035  0.74595297     0.02700
C631        C  0.80969306  0.44752125  0.71048170     0.09500
C632        C  0.84906235  0.45725828  0.79877225     0.35400
C633        C  0.76051815  0.57830402  0.72675459     0.38900
C634        C  0.83353764  0.44394187  0.67119638    -0.04700
C635        C  0.83586306  0.40956193  0.64653425     0.02500
C636        C  0.81544583  0.37776452  0.66201227    -0.04300
C637        C  0.79040778  0.38183194  0.70031849    -0.00500
C638        C  0.78732920  0.41670928  0.72411665    -0.03100
C639        C  0.85630707  0.47555362  0.65669838     0.36200
C640        C  0.76897880  0.34992984  0.71677053     0.39800
C641        C  0.85916521  0.40710504  0.60473285     0.38900
C642        C  0.76141461  0.42091663  0.76311793     0.35800
C643        C  0.76921634  0.51110046  0.67322530     0.36500
C644        C  0.84035571  0.52440946  0.85326409     0.39800
N645        N  0.87764373  0.40507752  0.57134346    -0.38300
N646        N  0.87447355  0.50076642  0.64515221    -0.39900
N647        N  0.75171013  0.32467171  0.73018797    -0.37600
N648        N  0.74072983  0.42443020  0.79420026    -0.40000
N649        N  0.86704007  0.43266149  0.81300914    -0.39800
N650        N  0.85494267  0.52697186  0.88956333    -0.37400
N651        N  0.74306902  0.60263424  0.71089533    -0.38500
N652        N  0.75537791  0.50852291  0.63647190    -0.40100
C653        C  0.72944537  0.49797524  0.02093345    -0.05100
C654        C  0.70364782  0.47318060  0.99975193     0.09100
C655        C  0.68459038  0.48420997  0.95847106    -0.02400
C656        C  0.69217939  0.51936500  0.93751219    -0.00700
C657        C  0.71924769  0.54377413  0.95759001    -0.04300
C658        C  0.73758110  0.53283887  0.99981120     0.02700
C659        C  0.69559359  0.43596982  0.02228054     0.09500
C660        C  0.65735223  0.45905484  0.93739985     0.35400
C661        C  0.76516260  0.55721990  0.02172271     0.38900
C662        C  0.66880451  0.43383071  0.05833986    -0.04700
C663        C  0.66194092  0.39948235  0.08141034     0.02500
C664        C  0.68265975  0.36629014  0.06932362    -0.04300
C665        C  0.70925968  0.36879982  0.03203981    -0.00500
C666        C  0.71530036  0.40333781  0.00858816    -0.03100
C667        C  0.64799141  0.46740584  0.07154990     0.36200
C668        C  0.73081083  0.33620962  0.01729924     0.39800
C669        C  0.63273107  0.39917057  0.11699731     0.38900
C670        C  0.74175419  0.40542111  0.96990846     0.35800
C671        C  0.74761397  0.48748832  0.06474439     0.36500
C672        C  0.67345312  0.52931233  0.89390635     0.39800
N673        N  0.60933675  0.39924994  0.14521933    -0.38300
N674        N  0.63145844  0.49418738  0.08198465    -0.39900
N675        N  0.74805581  0.31023934  0.00551600    -0.37600
N676        N  0.76262317  0.40712652  0.93882048    -0.40000
N677        N  0.63564087  0.43888810  0.92070787    -0.39800
N678        N  0.65849336  0.53721389  0.85911077    -0.37400
N679        N  0.78746461  0.57630356  0.03919403    -0.38500
N680        N  0.76186239  0.47917311  0.09984894    -0.40100
C681        C  0.52686620  0.82560072  0.21655002    -0.05100
C682        C  0.53854508  0.79891689  0.24999105     0.09100
C683        C  0.51624896  0.76736736  0.25941564    -0.02400
C684        C  0.48241973  0.76197675  0.23485486    -0.00700
C685        C  0.46946110  0.78949448  0.20242890    -0.04300
C686        C  0.49231557  0.82123401  0.19309311     0.02700
C687        C  0.57402401  0.80465715  0.27661118     0.09500
C688        C  0.52831967  0.74038195  0.29458354     0.35400
C689        C  0.48064144  0.84972178  0.15962502     0.38900
C690        C  0.57399948  0.82810449  0.31639583    -0.04700
C691        C  0.60744306  0.83456112  0.34142994     0.02500
C692        C  0.64161237  0.81658552  0.32734184    -0.04300
C693        C  0.64077493  0.79190858  0.28771378    -0.00500
C694        C  0.60714861  0.78633866  0.26248326    -0.03100
C695        C  0.53908785  0.84545844  0.33170754     0.36200
C696        C  0.67404087  0.77176548  0.27226887     0.39800
C697        C  0.60575275  0.86040043  0.38111171     0.38900
C698        C  0.60639426  0.76141461  0.22192513     0.35800
C699        C  0.55062644  0.85759608  0.20636519     0.36500
C700        C  0.46265905  0.72673693  0.24107276     0.39800
N701        N  0.60401305  0.88108343  0.41259364    -0.38300
N702        N  0.51120592  0.85907847  0.34387172    -0.39900
N703        N  0.70039164  0.75558169  0.25960657    -0.37600
N704        N  0.60570181  0.74136287  0.18978380    -0.40000
N705        N  0.53796530  0.71901443  0.32275798    -0.39800
N706        N  0.44725203  0.69843329  0.24582222    -0.37400
N707        N  0.47147316  0.87249126  0.13294887    -0.38500
N708        N  0.56966830  0.88302446  0.19825621    -0.40100
C709        C  0.00892820  0.80079789  0.46853845    -0.05100
C710        C  0.97503935  0.80832345  0.49245222     0.09100
C711        C  0.97506238  0.81273721  0.54180637    -0.02400
C712        C  0.00857065  0.80811797  0.56742129    -0.00700
C713        C  0.04224535  0.79932706  0.54371502    -0.04300
C714        C  0.04255860  0.79633585  0.49417815     0.02700
C715        C  0.93936828  0.81342063  0.46565963     0.09500
C716        C  0.94043373  0.82170649  0.56621003     0.35400
C717        C  0.07745666  0.78866079  0.46972678     0.38900
C718        C  0.91591382  0.78254364  0.45588776    -0.04700
C719        C  0.88125395  0.78803956  0.43267781     0.02500
C720        C  0.86926135  0.82470232  0.42062139    -0.04300
C721        C  0.89432794  0.85520243  0.42780405    -0.00500
C722        C  0.92895972  0.84950980  0.45057237    -0.03100
C723        C  0.92777314  0.74508677  0.46935976     0.36200
C724        C  0.88549386  0.89262579  0.41112947     0.39800
C725        C  0.86000003  0.75567042  0.41712338     0.38900
C726        C  0.95411825  0.88090600  0.45868206     0.35800
C727        C  0.00898452  0.79742217  0.41764585     0.36500
C728        C  0.00811544  0.81134772  0.61835860     0.39800
N729        N  0.84403787  0.72950570  0.40361307    -0.38300
N730        N  0.93736727  0.71523295  0.48009306    -0.39900
N731        N  0.87975789  0.92259683  0.39723605    -0.37600
N732        N  0.97424974  0.90584646  0.46510919    -0.40000
N733        N  0.91282078  0.82894225  0.58564064    -0.39800
N734        N  0.00744771  0.81402483  0.65896429    -0.37400
N735        N  0.10530195  0.78278273  0.45010610    -0.38500
N736        N  0.00888782  0.79475472  0.37702201    -0.40100
C737        C  0.77361810  0.71610932  0.10431593    -0.05100
C738        C  0.79493249  0.74942672  0.10778980     0.09100
C739        C  0.81794048  0.75994267  0.06977931    -0.02400
C740        C  0.81899566  0.73796154  0.02827298    -0.00700
C741        C  0.79591727  0.70563445  0.02341392    -0.04300
C742        C  0.77341537  0.69477231  0.06207653     0.02700
C743        C  0.79288439  0.77380509  0.15122291     0.09500
C744        C  0.83990996  0.79412885  0.07299559     0.35400
C745        C  0.74725077  0.66391457  0.05709949     0.38900
C746        C  0.82279763  0.77407384  0.18389615    -0.04700
C747        C  0.82044907  0.79605810  0.22528746     0.02500
C748        C  0.78804179  0.81782198  0.23472805    -0.04300
C749        C  0.75878799  0.81886792  0.20117464    -0.00500
C750        C  0.76126633  0.79704247  0.15952951    -0.03100
C751        C  0.85575441  0.75106973  0.17537120     0.36200
C752        C  0.72517386  0.84067149  0.21067746     0.39800
C753        C  0.85142839  0.79617637  0.25853791     0.38900
C754        C  0.73092333  0.79811134  0.12554016     0.35800
C755        C  0.75137834  0.70409686  0.14417986     0.36500
C756        C  0.84361775  0.74940400  0.99029908     0.39800
N757        N  0.87605316  0.79644667  0.28514223    -0.38300
N758        N  0.88212294  0.73283695  0.16848192    -0.39900
N759        N  0.69827884  0.85794552  0.21825205    -0.37600
N760        N  0.70648700  0.79921146  0.09872286    -0.40000
N761        N  0.85740576  0.82138632  0.07567499    -0.39800
N762        N  0.86314977  0.75907760  0.96021176    -0.37400
N763        N  0.72577661  0.63981320  0.05292995    -0.38500
N764        N  0.73377933  0.69443518  0.17609097    -0.40100
C765        C  0.69277369  0.79804203  0.59822075    -0.05100
C766        C  0.71283150  0.76443303  0.60629852     0.09100
C767        C  0.73473585  0.74880874  0.56999758    -0.02400
C768        C  0.73753580  0.76712081  0.52625346    -0.00700
C769        C  0.71906442  0.80201136  0.51845107    -0.04300
C770        C  0.69565569  0.81669669  0.55443937     0.02700
C771        C  0.71395488  0.74702854  0.65424433     0.09500
C772        C  0.75534585  0.71417352  0.57824245     0.35400
C773        C  0.67304169  0.84990559  0.54591054     0.38900
C774        C  0.69258246  0.71480078  0.66466705    -0.04700
C775        C  0.69681562  0.69654160  0.70854541     0.02500
C776        C  0.72262796  0.71037759  0.74227940    -0.04300
C777        C  0.74275454  0.74381712  0.73222056    -0.00500
C778        C  0.73872945  0.76160765  0.68827759    -0.03100
C779        C  0.66619110  0.70055328  0.63012401     0.36200
C780        C  0.76846791  0.75996922  0.76638257     0.39800
C781        C  0.67325048  0.66468459  0.71968872     0.38900
C782        C  0.76081921  0.79468382  0.67746674     0.35800
C783        C  0.66937648  0.81345546  0.63531494     0.36500
C784        C  0.75971679  0.74954169  0.48956803     0.39800
N785        N  0.65424636  0.63939329  0.72856913    -0.38300
N786        N  0.64510217  0.68922630  0.60254396    -0.39900
N787        N  0.78897868  0.77342630  0.79314157    -0.37600
N788        N  0.77835225  0.82103473  0.66865660    -0.40000
N789        N  0.77178216  0.68660629  0.58487486    -0.39800
N790        N  0.77680104  0.73477162  0.46027626    -0.37400
N791        N  0.65475578  0.87627437  0.53919147    -0.38500
N792        N  0.65078353  0.82562869  0.66508282    -0.40100
C793        C  0.77707382  0.00169270  0.54270850    -0.05100
C794        C  0.79747990  0.03198596  0.52399433     0.09100
C795        C  0.81520924  0.02811854  0.47983803    -0.02400
C796        C  0.80962727  0.99549129  0.45247352    -0.00700
C797        C  0.78775822  0.96568127  0.47021706    -0.04300
C798        C  0.77278574  0.96838984  0.51626840     0.02700
C799        C  0.79963126  0.06851587  0.54998062     0.09500
C800        C  0.83868162  0.05817211  0.46226942     0.35400
C801        C  0.75299600  0.93690429  0.53670375     0.38900
C802        C  0.82414834  0.07246146  0.58858824    -0.04700
C803        C  0.82867519  0.10778238  0.61028599     0.02500
C804        C  0.80952913  0.13974079  0.59258819    -0.04300
C805        C  0.78385230  0.13543539  0.55507599    -0.00500
C806        C  0.77855137  0.09975857  0.53428473    -0.03100
C807        C  0.84589511  0.04044254  0.60468845     0.36200
C808        C  0.76503136  0.16797863  0.53540371     0.39800
C809        C  0.85374657  0.11132775  0.65040449     0.38900
C810        C  0.75232275  0.09531170  0.49556367     0.35800
C811        C  0.75981680  0.00515866  0.58877128     0.36500
C812        C  0.82395638  0.99408188  0.40473084     0.39800
N813        N  0.87376489  0.11415465  0.68233376    -0.38300
N814        N  0.86322663  0.01486653  0.61740500    -0.39900
N815        N  0.75007232  0.19377766  0.51918126    -0.37600
N816        N  0.73147101  0.09164283  0.46462786    -0.40000
N817        N  0.85753492  0.08212896  0.44849766    -0.39800
N818        N  0.83516380  0.99324682  0.36651765    -0.37400
N819        N  0.73746387  0.91193012  0.55372579    -0.38500
N820        N  0.74617189  0.00793490  0.62557441    -0.40100
C821        C  0.71027025  0.00899865  0.23476662    -0.05100
C822        C  0.68842816  0.03710280  0.25661404     0.09100
C823        C  0.67208385  0.03004300  0.30095766    -0.02400
C824        C  0.67941556  0.99582201  0.32458099    -0.00700
C825        C  0.70318759  0.96848181  0.30385342    -0.04300
C826        C  0.71780536  0.97500059  0.25825857     0.02700
C827        C  0.68314324  0.07417204  0.23245351     0.09500
C828        C  0.64856531  0.05850606  0.32267556     0.35400
C829        C  0.74141865  0.94710033  0.23550914     0.38900
C830        C  0.65119447  0.08044563  0.20449784    -0.04700
C831        C  0.64790381  0.11353437  0.17751608     0.02500
C832        C  0.67658757  0.14140633  0.17871654    -0.04300
C833        C  0.70838884  0.13506184  0.20781190    -0.00500
C834        C  0.71154412  0.10165324  0.23439373    -0.03100
C835        C  0.62171795  0.05238327  0.20324660     0.36200
C836        C  0.73881799  0.16198618  0.20926283     0.39800
C837        C  0.61459145  0.11816703  0.14869321     0.38900
C838        C  0.74438048  0.09516823  0.26351393     0.35800
C839        C  0.72559911  0.01546319  0.18818215     0.36500
C840        C  0.66449854  0.98992468  0.37143445     0.39800
N841        N  0.58800643  0.12100485  0.12553662    -0.38300
N842        N  0.59819985  0.03005567  0.20251441    -0.39900
N843        N  0.76315764  0.18340573  0.21043764    -0.37600
N844        N  0.77055113  0.08989121  0.28674950    -0.40000
N845        N  0.62972433  0.08129034  0.33976696    -0.39800
N846        N  0.65264536  0.98530997  0.40887744    -0.37400
N847        N  0.76052956  0.92542796  0.21673216    -0.38500
N848        N  0.73777865  0.02068432  0.15104152    -0.40100
loop_ 
_geom_bond_atom_site_label_1 
_geom_bond_atom_site_label_2 
_geom_bond_distance 
_geom_bond_site_symmetry_2 
_ccdc_geom_bond_type 
O1          Cr19   1.998       .  S
O1            C9   1.270       .  A
O2          Cr19   1.997       .  S
O2            C3   1.259       .  A
C3            O4   1.263       .  A
C3          C769   1.501       .  S
O4          Cr20   2.000       .  S
O5          Cr20   1.985       .  S
O5            C6   1.262       .  A
C6            O7   1.265       .  A
C6          C797   1.485       .  S
O7          Cr21   1.991       .  S
O8          Cr21   2.000       .  S
O8            C9   1.265       .  A
C9          C720   1.494       .  S
O10         Cr19   1.990       .  S
O10          C18   1.258       .  A
O11         Cr19   1.984       .  S
O11          C12   1.264       .  A
C12          O13   1.263       .  A
C12         C692   1.504       .  S
O13         Cr20   1.992       .  S
O14         Cr20   2.002       .  S
O14          C15   1.266       .  A
C15          O16   1.260       .  A
C15         C825   1.490       .  S
O16         Cr21   1.984       .  S
O17         Cr21   2.006       .  S
O17          C18   1.263       .  A
C18         C748   1.488       .  S
Cr19         O22   1.771       .  S
Cr20         O22   1.775       .  S
Cr21         O22   1.768       .  S
O23         Cr41   2.003       .  S
O23          C31   1.268       .  A
O24         Cr41   1.983       .  S
O24          C25   1.254       .  A
C25          O26   1.262       .  A
C25         C776   1.495       .  S
O26         Cr42   2.005       .  S
O27         Cr42   1.985       .  S
O27          C28   1.262       .  A
C28          O29   1.267       .  A
C28         C629   1.492       .  S
O29         Cr43   2.002       .  S
O30         Cr43   1.993       .  S
O30          C31   1.264       .  A
C31         C601   1.500       .  S
O32         Cr41   1.986       .  S
O32          C40   1.257       .  A
O33         Cr41   1.999       .  S
O33          C34   1.270       .  A
C34          O35   1.267       .  A
C34         C573   1.511       .  S
O35         Cr42   1.994       .  S
O36         Cr42   1.997       .  S
O36          C37   1.265       .  A
C37          O38   1.260       .  A
C37         C657   1.497       .  S
O38         Cr43   1.985       .  S
O39         Cr43   2.016       .  S
O39          C40   1.267       .  A
C40         C741   1.502   1_556  S
Cr41         O44   1.778       .  S
Cr42         O44   1.772       .  S
Cr43         O44   1.777       .  S
O45         Cr63   2.000       .  S
O45          C53   1.267       .  A
O46         Cr63   1.987       .  S
O46          C47   1.262       .  A
C47          O48   1.264       .  A
C47         C552   1.496       .  S
O48         Cr64   1.995       .  S
O49         Cr64   2.010       .  S
O49          C50   1.265       .  A
C50          O51   1.256       .  A
C50         C608   1.500       .  S
O51         Cr65   1.973       .  S
O52         Cr65   1.988       .  S
O52          C53   1.265       .  A
C53         C489   1.498       .  S
O54         Cr63   1.993       .  S
O54          C62   1.262       .  A
O55         Cr63   1.998       .  S
O55          C56   1.264       .  A
C56          O57   1.262       .  A
C56         C517   1.488       .  S
O57         Cr64   1.997       .  S
O58         Cr64   1.997       .  S
O58          C59   1.265       .  A
C59          O60   1.263       .  A
C59         C713   1.473       .  S
O60         Cr65   1.984       .  S
O61         Cr65   1.985       .  S
O61          C62   1.256       .  A
C62         C461   1.489       .  S
Cr63         O66   1.770       .  S
Cr64         O66   1.775       .  S
Cr65         O66   1.771       .  S
O67         Cr85   1.965       .  S
O67          C75   1.254       .  A
O68         Cr85   2.028       .  S
O68          C69   1.273       .  A
C69          O70   1.258       .  A
C69         C405   1.503       .  S
O70         Cr86   1.956       .  S
O71         Cr86   2.016       .  S
O71          C72   1.268       .  A
C72          O73   1.260       .  A
C72         C685   1.491       .  S
O73         Cr87   1.965       .  S
O74         Cr87   2.026       .  S
O74          C75   1.266       .  A
C75         C524   1.487       .  S
O76         Cr85   2.026       .  S
O76          C84   1.271       .  A
O77         Cr85   1.962       .  S
O77          C78   1.253       .  A
C78          O79   1.265       .  A
C78         C496   1.481   1_554  S
O79         Cr86   2.016       .  S
O80         Cr86   1.979       .  S
O80          C81   1.261       .  A
C81          O82   1.268       .  A
C81         C580   1.499       .  S
O82         Cr87   2.021       .  S
O83         Cr87   1.950       .  S
O83          C84   1.258       .  A
C84         C433   1.485       .  S
Cr85         O88   1.769       .  S
Cr86         O88   1.771       .  S
Cr87         O88   1.764       .  S
O89        Cr107   1.986       .  S
O89          C97   1.267       .  A
O90        Cr107   1.978       .  S
O90          C91   1.254       .  A
C91          O92   1.262       .  A
C91         C356   1.506       .  S
O92        Cr108   2.007       .  S
O93        Cr108   1.992       .  S
O93          C94   1.263       .  A
C94          O95   1.261       .  A
C94         C412   1.476       .  S
O95        Cr109   1.985       .  S
O96        Cr109   2.005       .  S
O96          C97   1.268       .  A
C97         C293   1.504       .  S
O98        Cr107   1.990       .  S
O98         C106   1.255       .  A
O99        Cr107   1.988       .  S
O99         C100   1.269       .  A
C100        O101   1.270       .  A
C100        C328   1.487       .  S
O101       Cr108   2.001       .  S
O102       Cr108   1.981       .  S
O102        C103   1.260       .  A
C103        O104   1.261       .  A
C103        C468   1.476       .  S
O104       Cr109   1.983       .  S
O105       Cr109   1.998       .  S
O105        C106   1.259       .  A
C106        C377   1.494       .  S
Cr107       O110   1.766       .  S
Cr108       O110   1.771       .  S
Cr109       O110   1.771       .  S
O111       Cr129   2.031       .  S
O111        C119   1.273       .  A
O112       Cr129   1.950       .  S
O112        C113   1.253       .  A
C113        O114   1.269       .  A
C113        C384   1.506       .  S
O114       Cr130   2.024       .  S
O115       Cr130   1.962       .  S
O115        C116   1.255       .  A
C116        O117   1.268       .  A
C116        C545   1.490       .  S
O117       Cr131   2.021       .  S
O118       Cr131   1.959       .  S
O118        C119   1.258       .  A
C119        C265   1.497       .  S
O120       Cr129   1.957       .  S
O120        C128   1.254       .  A
O121       Cr129   2.029       .  S
O121        C122   1.271       .  A
C122        O123   1.256       .  A
C122        C244   1.491       .  S
O123       Cr130   1.956       .  S
O124       Cr130   2.024       .  S
O124        C125   1.270       .  A
C125        O126   1.259       .  A
C125        C440   1.508       .  S
O126       Cr131   1.962       .  S
O127       Cr131   2.025       .  S
O127        C128   1.268       .  A
C128        C349   1.485   1_556  S
Cr129       O132   1.762       .  S
Cr130       O132   1.760       .  S
Cr131       O132   1.767       .  S
O133       Cr151   1.970       .  S
O133        C141   1.256       .  A
O134       Cr151   2.038       .  S
O134        C135   1.274       .  A
C135        O136   1.255       .  A
C135        C804   1.484       .  S
O136       Cr152   1.945       .  S
O137       Cr152   2.014       .  S
O137        C138   1.266       .  A
C138        O139   1.256       .  A
C138        C321   1.480       .  S
O139       Cr153   1.964       .  S
O140       Cr153   2.032       .  S
O140        C141   1.269       .  A
C141        C209   1.497       .  S
O142       Cr151   2.036       .  S
O142        C150   1.273       .  A
O143       Cr151   1.967       .  S
O143        C144   1.254       .  A
C144        O145   1.266       .  A
C144        C188   1.485       .  S
O145       Cr152   2.025       .  S
O146       Cr152   1.972       .  S
O146        C147   1.260       .  A
C147        O148   1.270       .  A
C147        C272   1.481       .  S
O148       Cr153   2.028       .  S
O149       Cr153   1.952       .  S
O149        C150   1.256       .  A
C150        C636   1.494       .  S
Cr151       O154   1.771       .  S
Cr152       O154   1.774       .  S
Cr153       O154   1.768       .  S
O155       Cr173   2.001       .  S
O155        C163   1.261       .  A
O156       Cr173   2.003       .  S
O156        C157   1.268       .  A
C157        O158   1.265       .  A
C157        C664   1.518       .  S
O158       Cr174   1.999       .  S
O159       Cr174   2.003       .  S
O159        C160   1.268       .  A
C160        O161   1.262       .  A
C160        C237   1.493       .  S
O161       Cr175   1.986       .  S
O162       Cr175   1.992       .  S
O162        C163   1.261       .  A
C163        C181   1.490   1_554  S
O164       Cr173   2.000       .  S
O164        C172   1.268       .  A
O165       Cr173   2.004       .  S
O165        C166   1.261       .  A
C166        O167   1.263       .  A
C166        C216   1.494       .  S
O167       Cr174   2.006       .  S
O168       Cr174   1.984       .  S
O168        C169   1.261       .  A
C169        O170   1.263       .  A
C169        C300   1.480       .  S
O170       Cr175   1.988       .  S
O171       Cr175   2.003       .  S
O171        C172   1.265       .  A
C172        C832   1.507       .  S
Cr173       O176   1.771       .  S
Cr174       O176   1.766       .  S
Cr175       O176   1.769       .  S
C177        C178   1.414       .  A
C177        C182   1.413       .  A
C177        C195   1.451       .  S
C178        C183   1.505       .  S
C178        C179   1.412       .  A
C179        C180   1.413       .  A
C179        C184   1.451       .  S
C180        C181   1.416       .  A
C180        C196   1.451   1_556  S
C181        C182   1.414       .  A
C182        C185   1.451       .  S
C183        C186   1.414       .  A
C183        C190   1.414       .  A
C184        N201   1.157       .  T
C185        N203   1.157       .  T
C186        C187   1.411       .  A
C186        C191   1.450       .  S
C187        C188   1.412       .  A
C187        C193   1.452       .  S
C188        C189   1.413       .  A
C189        C190   1.414       .  A
C189        C192   1.451       .  S
C190        C194   1.450       .  S
C191        N198   1.157       .  T
C192        N199   1.157       .  T
C193        N197   1.157       .  T
C194        N200   1.157       .  T
C195        N204   1.157       .  T
C196        N202   1.157       .  T
C205        C206   1.416       .  A
C205        C210   1.419       .  A
C205        C223   1.450       .  S
C206        C211   1.512       .  S
C206        C207   1.412       .  A
C207        C208   1.415       .  A
C207        C212   1.450       .  S
C208        C209   1.415       .  A
C208        C224   1.451       .  S
C209        C210   1.414       .  A
C210        C213   1.450       .  S
C211        C214   1.415       .  A
C211        C218   1.413       .  A
C212        N229   1.157       .  T
C213        N231   1.157       .  T
C214        C215   1.417       .  A
C214        C219   1.450       .  S
C215        C216   1.414       .  A
C215        C221   1.451       .  S
C216        C217   1.415       .  A
C217        C218   1.416       .  A
C217        C220   1.451       .  S
C218        C222   1.450       .  S
C219        N226   1.157       .  T
C220        N227   1.157       .  T
C221        N225   1.157       .  T
C222        N228   1.157       .  T
C223        N232   1.157       .  T
C224        N230   1.157       .  T
C233        C234   1.407       .  A
C233        C238   1.411       .  A
C233        C251   1.451       .  S
C234        C239   1.498       .  S
C234        C235   1.412   1_556  A
C235        C236   1.414       .  A
C235        C240   1.451       .  S
C236        C237   1.415       .  A
C236        C252   1.450       .  S
C237        C238   1.420   1_554  A
C238        C241   1.451       .  S
C239        C242   1.412       .  A
C239        C246   1.407       .  A
C240        N257   1.157       .  T
C241        N259   1.157       .  T
C242        C243   1.414       .  A
C242        C247   1.450   1_556  S
C243        C244   1.416       .  A
C243        C249   1.450       .  S
C244        C245   1.419       .  A
C245        C246   1.409       .  A
C245        C248   1.452       .  S
C246        C250   1.451       .  S
C247        N254   1.157       .  T
C248        N255   1.157       .  T
C249        N253   1.158       .  T
C250        N256   1.157       .  T
C251        N260   1.157       .  T
C252        N258   1.157       .  T
C261        C262   1.409       .  A
C261        C266   1.411       .  A
C261        C279   1.452       .  S
C262        C267   1.502       .  S
C262        C263   1.413       .  A
C263        C264   1.414       .  A
C263        C268   1.451       .  S
C264        C265   1.416       .  A
C264        C280   1.449       .  S
C265        C266   1.422       .  A
C266        C269   1.452       .  S
C267        C270   1.411       .  A
C267        C274   1.415   1_455  A
C268        N285   1.157       .  T
C269        N287   1.157       .  T
C270        C271   1.409   1_455  A
C270        C275   1.452       .  S
C271        C272   1.414       .  A
C271        C277   1.451       .  S
C272        C273   1.410       .  A
C273        C274   1.414       .  A
C273        C276   1.451       .  S
C274        C278   1.450       .  S
C275        N282   1.157       .  T
C276        N283   1.157       .  T
C277        N281   1.157       .  T
C278        N284   1.157       .  T
C279        N288   1.157       .  T
C280        N286   1.157       .  T
C289        C290   1.408       .  A
C289        C294   1.412       .  A
C289        C307   1.452       .  S
C290        C295   1.492       .  S
C290        C291   1.403       .  A
C291        C292   1.408       .  A
C291        C296   1.453       .  S
C292        C293   1.429       .  A
C292        C308   1.453       .  S
C293        C294   1.424       .  A
C294        C297   1.451       .  S
C295        C298   1.409       .  A
C295        C302   1.410       .  A
C296        N313   1.157       .  T
C297        N315   1.158       .  T
C298        C299   1.408       .  A
C298        C303   1.451       .  S
C299        C300   1.415       .  A
C299        C305   1.452       .  S
C300        C301   1.414       .  A
C301        C302   1.410       .  A
C301        C304   1.450       .  S
C302        C306   1.451       .  S
C303        N310   1.157       .  T
C304        N311   1.157       .  T
C305        N309   1.157       .  T
C306        N312   1.157       .  T
C307        N316   1.157       .  T
C308        N314   1.158       .  T
C317        C318   1.412       .  A
C317        C322   1.412   1_455  A
C317        C335   1.450       .  S
C318        C323   1.492       .  S
C318        C319   1.408       .  A
C319        C320   1.406   1_455  A
C319        C324   1.452       .  S
C320        C321   1.416       .  A
C320        C336   1.452       .  S
C321        C322   1.413       .  A
C322        C325   1.451       .  S
C323        C326   1.408       .  A
C323        C330   1.410       .  A
C324        N341   1.157       .  T
C325        N343   1.158       .  T
C326        C327   1.409       .  A
C326        C331   1.451       .  S
C327        C328   1.418       .  A
C327        C333   1.452       .  S
C328        C329   1.416       .  A
C329        C330   1.410       .  A
C329        C332   1.450       .  S
C330        C334   1.452       .  S
C331        N338   1.157       .  T
C332        N339   1.157       .  T
C333        N337   1.157       .  T
C334        N340   1.157       .  T
C335        N344   1.157       .  T
C336        N342   1.157       .  T
C345        C346   1.411       .  A
C345        C350   1.409       .  A
C345        C363   1.451       .  S
C346        C351   1.499       .  S
C346        C347   1.413       .  A
C347        C348   1.412       .  A
C347        C352   1.450       .  S
C348        C349   1.412       .  A
C348        C364   1.449       .  S
C349        C350   1.415       .  A
C350        C353   1.452       .  S
C351        C354   1.406       .  A
C351        C358   1.411       .  A
C352        N369   1.157       .  T
C353        N371   1.157       .  T
C354        C355   1.409       .  A
C354        C359   1.453       .  S
C355        C356   1.428       .  A
C355        C361   1.453       .  S
C356        C357   1.419       .  A
C357        C358   1.415       .  A
C357        C360   1.449       .  S
C358        C362   1.451       .  S
C359        N366   1.157       .  T
C360        N367   1.157       .  T
C361        N365   1.158       .  T
C362        N368   1.157       .  T
C363        N372   1.157       .  T
C364        N370   1.157   1_554  T
C373        C374   1.406       .  A
C373        C378   1.407       .  A
C373        C391   1.453       .  S
C374        C379   1.492       .  S
C374        C375   1.409       .  A
C375        C376   1.412       .  A
C375        C380   1.451       .  S
C376        C377   1.417       .  A
C376        C392   1.450       .  S
C377        C378   1.423       .  A
C378        C381   1.453       .  S
C379        C382   1.404       .  A
C379        C386   1.407       .  A
C380        N397   1.157       .  T
C381        N399   1.157       .  T
C382        C383   1.406       .  A
C382        C387   1.456       .  S
C383        C384   1.430       .  A
C383        C389   1.451       .  S
C384        C385   1.424       .  A
C385        C386   1.414       .  A
C385        C388   1.451       .  S
C386        C390   1.450       .  S
C387        N394   1.157       .  T
C388        N395   1.157       .  T
C389        N393   1.158       .  T
C390        N396   1.158       .  T
C391        N400   1.157       .  T
C392        N398   1.158       .  T
C401        C402   1.404       .  A
C401        C406   1.407       .  A
C401        C419   1.453       .  S
C402        C407   1.494       .  S
C402        C403   1.410       .  A
C403        C404   1.416       .  A
C403        C408   1.450       .  S
C404        C405   1.420       .  A
C404        C420   1.450       .  S
C405        C406   1.425       .  A
C406        C409   1.450       .  S
C407        C410   1.413   1_565  A
C407        C414   1.411       .  A
C408        N425   1.157       .  T
C409        N427   1.156       .  T
C410        C411   1.413       .  A
C410        C415   1.449       .  S
C411        C412   1.409       .  A
C411        C417   1.450       .  S
C412        C413   1.411       .  A
C413        C414   1.407   1_545  A
C413        C416   1.449       .  S
C414        C418   1.452       .  S
C415        N422   1.157       .  T
C416        N423   1.157       .  T
C417        N421   1.157       .  T
C418        N424   1.157       .  T
C419        N428   1.157       .  T
C420        N426   1.157       .  T
C429        C430   1.411       .  A
C429        C434   1.412       .  A
C429        C447   1.450   1_554  S
C430        C435   1.492       .  S
C430        C431   1.407       .  A
C431        C432   1.405       .  A
C431        C436   1.452       .  S
C432        C433   1.418       .  A
C432        C448   1.453       .  S
C433        C434   1.415       .  A
C434        C437   1.451       .  S
C435        C438   1.406   1_554  A
C435        C442   1.404       .  A
C436        N453   1.157       .  T
C437        N455   1.157       .  T
C438        C439   1.412       .  A
C438        C443   1.453       .  S
C439        C440   1.427       .  A
C439        C445   1.452       .  S
C440        C441   1.428   1_556  A
C441        C442   1.409       .  A
C441        C444   1.453       .  S
C442        C446   1.453       .  S
C443        N450   1.157       .  T
C444        N451   1.158       .  T
C445        N449   1.158       .  T
C446        N452   1.157       .  T
C447        N456   1.157       .  T
C448        N454   1.157       .  T
C457        C458   1.404       .  A
C457        C462   1.407       .  A
C457        C475   1.453       .  S
C458        C463   1.489       .  S
C458        C459   1.410       .  A
C459        C460   1.410       .  A
C459        C464   1.450       .  S
C460        C461   1.415       .  A
C460        C476   1.451       .  S
C461        C462   1.423       .  A
C462        C465   1.452       .  S
C463        C466   1.409   1_565  A
C463        C470   1.410       .  A
C464        N481   1.157       .  T
C465        N483   1.158       .  T
C466        C467   1.408       .  A
C466        C471   1.451       .  S
C467        C468   1.412       .  A
C467        C473   1.450       .  S
C468        C469   1.414       .  A
C469        C470   1.408   1_545  A
C469        C472   1.452       .  S
C470        C474   1.451       .  S
C471        N478   1.157       .  T
C472        N479   1.157       .  T
C473        N477   1.157       .  T
C474        N480   1.157       .  T
C475        N484   1.157       .  T
C476        N482   1.157       .  T
C485        C486   1.411       .  A
C485        C490   1.413       .  A
C485        C503   1.451       .  S
C486        C491   1.497       .  S
C486        C487   1.408       .  A
C487        C488   1.409       .  A
C487        C492   1.451       .  S
C488        C489   1.422       .  A
C488        C504   1.452       .  S
C489        C490   1.420       .  A
C490        C493   1.450       .  S
C491        C494   1.412       .  A
C491        C498   1.412       .  A
C492        N509   1.157       .  T
C493        N511   1.157       .  T
C494        C495   1.410       .  A
C494        C499   1.451       .  S
C495        C496   1.414       .  A
C495        C501   1.452       .  S
C496        C497   1.411       .  A
C497        C498   1.411       .  A
C497        C500   1.450       .  S
C498        C502   1.450       .  S
C499        N506   1.157       .  T
C500        N507   1.157   1_556  T
C501        N505   1.158       .  T
C502        N508   1.157       .  T
C503        N512   1.157       .  T
C504        N510   1.158       .  T
C513        C514   1.414       .  A
C513        C518   1.416       .  A
C513        C531   1.449       .  S
C514        C519   1.501       .  S
C514        C515   1.411       .  A
C515        C516   1.409       .  A
C515        C520   1.452       .  S
C516        C517   1.411       .  A
C516        C532   1.447       .  S
C517        C518   1.411       .  A
C518        C521   1.447       .  S
C519        C522   1.410       .  A
C519        C526   1.414       .  A
C520        N537   1.157       .  T
C521        N539   1.157       .  T
C522        C523   1.410       .  A
C522        C527   1.451       .  S
C523        C524   1.416       .  A
C523        C529   1.452       .  S
C524        C525   1.411       .  A
C525        C526   1.414       .  A
C525        C528   1.449       .  S
C526        C530   1.450       .  S
C527        N534   1.157       .  T
C528        N535   1.157       .  T
C529        N533   1.157       .  T
C530        N536   1.157       .  T
C531        N540   1.157       .  T
C532        N538   1.156       .  T
C541        C542   1.409       .  A
C541        C546   1.410       .  A
C541        C559   1.451       .  S
C542        C547   1.490       .  S
C542        C543   1.407       .  A
C543        C544   1.407       .  A
C543        C548   1.453       .  S
C544        C545   1.422       .  A
C544        C560   1.453       .  S
C545        C546   1.417       .  A
C546        C549   1.451       .  S
C547        C550   1.408       .  A
C547        C554   1.406       .  A
C548        N565   1.157       .  T
C549        N567   1.157       .  T
C550        C551   1.412       .  A
C550        C555   1.452       .  S
C551        C552   1.419       .  A
C551        C557   1.446       .  S
C552        C553   1.418       .  A
C553        C554   1.407       .  A
C553        C556   1.446       .  S
C554        C558   1.452       .  S
C555        N562   1.157       .  T
C556        N563   1.155       .  T
C557        N561   1.156       .  T
C558        N564   1.157       .  T
C559        N568   1.157       .  T
C560        N566   1.158       .  T
C569        C570   1.410       .  A
C569        C574   1.417       .  A
C569        C587   1.450   1_556  S
C570        C575   1.500       .  S
C570        C571   1.405       .  A
C571        C572   1.410       .  A
C571        C576   1.453       .  S
C572        C573   1.428       .  A
C572        C588   1.452       .  S
C573        C574   1.422       .  A
C574        C577   1.448       .  S
C575        C578   1.408       .  A
C575        C582   1.410   1_556  A
C576        N593   1.157       .  T
C577        N595   1.157   1_556  T
C578        C579   1.412   1_556  A
C578        C583   1.452       .  S
C579        C580   1.422       .  A
C579        C585   1.451       .  S
C580        C581   1.419       .  A
C581        C582   1.414       .  A
C581        C584   1.451       .  S
C582        C586   1.450       .  S
C583        N590   1.157       .  T
C584        N591   1.157       .  T
C585        N589   1.157   1_554  T
C586        N592   1.157       .  T
C587        N596   1.157       .  T
C588        N594   1.157       .  T
C597        C598   1.410       .  A
C597        C602   1.414       .  A
C597        C615   1.451       .  S
C598        C603   1.500       .  S
C598        C599   1.408       .  A
C599        C600   1.411       .  A
C599        C604   1.452       .  S
C600        C601   1.424       .  A
C600        C616   1.452       .  S
C601        C602   1.419       .  A
C602        C605   1.450       .  S
C603        C606   1.407       .  A
C603        C610   1.413       .  A
C604        N621   1.157   1_655  T
C605        N623   1.157       .  T
C606        C607   1.407   1_655  A
C606        C611   1.453       .  S
C607        C608   1.425       .  A
C607        C613   1.454       .  S
C608        C609   1.417       .  A
C609        C610   1.416   1_455  A
C609        C612   1.450       .  S
C610        C614   1.450       .  S
C611        N618   1.157       .  T
C612        N619   1.157       .  T
C613        N617   1.158       .  T
C614        N620   1.157       .  T
C615        N624   1.157       .  T
C616        N622   1.158       .  T
C625        C626   1.410       .  A
C625        C630   1.411       .  A
C625        C643   1.451       .  S
C626        C631   1.502       .  S
C626        C627   1.413       .  A
C627        C628   1.415       .  A
C627        C632   1.450       .  S
C628        C629   1.415       .  A
C628        C644   1.450       .  S
C629        C630   1.418       .  A
C630        C633   1.451       .  S
C631        C634   1.409       .  A
C631        C638   1.414       .  A
C632        N649   1.157       .  T
C633        N651   1.157       .  T
C634        C635   1.410       .  A
C634        C639   1.451       .  S
C635        C636   1.419       .  A
C635        C641   1.452       .  S
C636        C637   1.415       .  A
C637        C638   1.415       .  A
C637        C640   1.450       .  S
C638        C642   1.451       .  S
C639        N646   1.157       .  T
C640        N647   1.157       .  T
C641        N645   1.157       .  T
C642        N648   1.157       .  T
C643        N652   1.157       .  T
C644        N650   1.157       .  T
C653        C654   1.409   1_554  A
C653        C658   1.412   1_554  A
C653        C671   1.451       .  S
C654        C659   1.502   1_556  S
C654        C655   1.410       .  A
C655        C656   1.415       .  A
C655        C660   1.450       .  S
C656        C657   1.418       .  A
C656        C672   1.450       .  S
C657        C658   1.420       .  A
C658        C661   1.452   1_556  S
C659        C662   1.404       .  A
C659        C666   1.410       .  A
C660        N677   1.157       .  T
C661        N679   1.157       .  T
C662        C663   1.412       .  A
C662        C667   1.453       .  S
C663        C664   1.432       .  A
C663        C669   1.452       .  S
C664        C665   1.426       .  A
C665        C666   1.418       .  A
C665        C668   1.450       .  S
C666        C670   1.451   1_554  S
C667        N674   1.157       .  T
C668        N675   1.157       .  T
C669        N673   1.158       .  T
C670        N676   1.157       .  T
C671        N680   1.157       .  T
C672        N678   1.157       .  T
C681        C682   1.407       .  A
C681        C686   1.408       .  A
C681        C699   1.452       .  S
C682        C687   1.487       .  S
C682        C683   1.405       .  A
C683        C684   1.406       .  A
C683        C688   1.452       .  S
C684        C685   1.423       .  A
C684        C700   1.452       .  S
C685        C686   1.421       .  A
C686        C689   1.452       .  S
C687        C690   1.402       .  A
C687        C694   1.406       .  A
C688        N705   1.157       .  T
C689        N707   1.158       .  T
C690        C691   1.406       .  A
C690        C695   1.454       .  S
C691        C692   1.431       .  A
C691        C697   1.453       .  S
C692        C693   1.425       .  A
C693        C694   1.410       .  A
C693        C696   1.452       .  S
C694        C698   1.452       .  S
C695        N702   1.157       .  T
C696        N703   1.158       .  T
C697        N701   1.158       .  T
C698        N704   1.157       .  T
C699        N708   1.157       .  T
C700        N706   1.158       .  T
C709        C710   1.411   1_455  A
C709        C714   1.411       .  A
C709        C727   1.450       .  S
C710        C715   1.492       .  S
C710        C711   1.410       .  A
C711        C712   1.407   1_655  A
C711        C716   1.451       .  S
C712        C713   1.411       .  A
C712        C728   1.451       .  S
C713        C714   1.411       .  A
C714        C717   1.451       .  S
C715        C718   1.410       .  A
C715        C722   1.404       .  A
C716        N733   1.157       .  T
C717        N735   1.157       .  T
C718        C719   1.413       .  A
C718        C723   1.450       .  S
C719        C720   1.415       .  A
C719        C725   1.448       .  S
C720        C721   1.422       .  A
C721        C722   1.407       .  A
C721        C724   1.449       .  S
C722        C726   1.453       .  S
C723        N730   1.157       .  T
C724        N731   1.156       .  T
C725        N729   1.157       .  T
C726        N732   1.157       .  T
C727        N736   1.157       .  T
C728        N734   1.157       .  T
C737        C738   1.414       .  A
C737        C742   1.418       .  A
C737        C755   1.450       .  S
C738        C743   1.507       .  S
C738        C739   1.409       .  A
C739        C740   1.413       .  A
C739        C744   1.452       .  S
C740        C741   1.423       .  A
C740        C756   1.452   1_554  S
C741        C742   1.417       .  A
C742        C745   1.450       .  S
C743        C746   1.413       .  A
C743        C750   1.416       .  A
C744        N761   1.157       .  T
C745        N763   1.157       .  T
C746        C747   1.412       .  A
C746        C751   1.450       .  S
C747        C748   1.415       .  A
C747        C753   1.452       .  S
C748        C749   1.412       .  A
C749        C750   1.415       .  A
C749        C752   1.451       .  S
C750        C754   1.449       .  S
C751        N758   1.157       .  T
C752        N759   1.158       .  T
C753        N757   1.157       .  T
C754        N760   1.157       .  T
C755        N764   1.157       .  T
C756        N762   1.157       .  T
C765        C766   1.411       .  A
C765        C770   1.416       .  A
C765        C783   1.450       .  S
C766        C771   1.499       .  S
C766        C767   1.406       .  A
C767        C768   1.409       .  A
C767        C772   1.453       .  S
C768        C769   1.422       .  A
C768        C784   1.448       .  S
C769        C770   1.418       .  A
C770        C773   1.450       .  S
C771        C774   1.412       .  A
C771        C778   1.407       .  A
C772        N789   1.157       .  T
C773        N791   1.157       .  T
C774        C775   1.415       .  A
C774        C779   1.450       .  S
C775        C776   1.416       .  A
C775        C781   1.450       .  S
C776        C777   1.422       .  A
C777        C778   1.408       .  A
C777        C780   1.452       .  S
C778        C782   1.453       .  S
C779        N786   1.157       .  T
C780        N787   1.157       .  T
C781        N785   1.157       .  T
C782        N788   1.157       .  T
C783        N792   1.157       .  T
C784        N790   1.156       .  T
C793        C794   1.409       .  A
C793        C798   1.410   1_545  A
C793        C811   1.451       .  S
C794        C799   1.495       .  S
C794        C795   1.411       .  A
C795        C796   1.410   1_545  A
C795        C800   1.451       .  S
C796        C797   1.414       .  A
C796        C812   1.450       .  S
C797        C798   1.416       .  A
C798        C801   1.450       .  S
C799        C802   1.408       .  A
C799        C806   1.413       .  A
C800        N817   1.157       .  T
C801        N819   1.157       .  T
C802        C803   1.408       .  A
C802        C807   1.451       .  S
C803        C804   1.418       .  A
C803        C809   1.452       .  S
C804        C805   1.412       .  A
C805        C806   1.412       .  A
C805        C808   1.450       .  S
C806        C810   1.451       .  S
C807        N814   1.157       .  T
C808        N815   1.157       .  T
C809        N813   1.157       .  T
C810        N816   1.157       .  T
C811        N820   1.157       .  T
C812        N818   1.157       .  T
C821        C822   1.409       .  A
C821        C826   1.409   1_545  A
C821        C839   1.452       .  S
C822        C827   1.501       .  S
C822        C823   1.412       .  A
C823        C824   1.416   1_545  A
C823        C828   1.450       .  S
C824        C825   1.416       .  A
C824        C840   1.450       .  S
C825        C826   1.417       .  A
C826        C829   1.451       .  S
C827        C830   1.405       .  A
C827        C834   1.411       .  A
C828        N845   1.157       .  T
C829        N847   1.157       .  T
C830        C831   1.412       .  A
C830        C835   1.453       .  S
C831        C832   1.427       .  A
C831        C837   1.451       .  S
C832        C833   1.420       .  A
C833        C834   1.415       .  A
C833        C836   1.450       .  S
C834        C838   1.451       .  S
C835        N842   1.157       .  T
C836        N843   1.157       .  T
C837        N841   1.157       .  T
C838        N844   1.157       .  T
C839        N848   1.157       .  T
C840        N846   1.157       .  T
