geometry optimzed in LAMMPS
_audit_creation_date              2020-12-01 
_audit_creation_method            'lammps2cif' 
_symmetry_space_group_name_H-M    'P1' 
_symmetry_Int_Tables_number       1 
_symmetry_cell_setting            triclinic 
loop_ 
_symmetry_equiv_pos_as_xyz 
  x,y,z 
_cell_length_a                    46.98758632 
_cell_length_b                    46.85394079945762 
_cell_length_c                    46.97473714621942 
_cell_angle_alpha                 90.00958691011941 
_cell_angle_beta                  90.16257089801597 
_cell_angle_gamma                 90.01561246560811 
loop_ 
_atom_site_label 
_atom_site_type_symbol 
_atom_site_fract_x 
_atom_site_fract_y 
_atom_site_fract_z 
_atom_site_charge 
O1          O  0.25226762  0.97832476  0.13959445    -0.84700
O2          O  0.23014491  0.95869547  0.18949281    -0.81800
C3          C  0.22643067  0.95451416  0.21572235     0.98700
O4          O  0.23870143  0.97053354  0.23388710    -0.81800
O5          O  0.29658403  0.96284651  0.22875268    -0.84400
C6          C  0.32047280  0.96219980  0.21670460     1.03300
O7          O  0.32698772  0.98104137  0.19865302    -0.77200
O8          O  0.29399583  0.96426614  0.15382450    -0.77400
C9          C  0.27155140  0.95953961  0.13993611     1.03200
O10         O  0.24296208  0.03605375  0.15958183    -0.84700
O11         O  0.21496637  0.01465373  0.20600984    -0.81800
C12         C  0.22236373  0.03098135  0.22604156     0.98800
O13         O  0.24785347  0.03156577  0.23445802    -0.81800
O14         O  0.30631753  0.02404880  0.23272117    -0.84400
C15         C  0.31617929  0.04188385  0.21482738     1.03200
O16         O  0.31128702  0.03876385  0.18862061    -0.77200
O17         O  0.28343431  0.02429726  0.13989729    -0.77400
C18         C  0.26343379  0.04202677  0.14341112     1.03200
Cr19       Cr  0.23741391  0.99718486  0.17472114     1.93700
Cr20       Cr  0.27239241  0.99737073  0.22980770     1.93200
Cr21       Cr  0.30171070  0.00180454  0.17153307     1.39100
O22         O  0.27053226  0.99893433  0.19227476    -1.22500
O23         O  0.76871471  0.03288761  0.15742402    -0.84700
O24         O  0.79522535  0.01658542  0.20606042    -0.81800
C25         C  0.78746651  0.03551289  0.22360949     0.98700
O26         O  0.76246594  0.03561800  0.23337075    -0.81800
O27         O  0.70400202  0.02724970  0.23291335    -0.84400
C28         C  0.69394890  0.04409100  0.21416773     1.03300
O29         O  0.69907031  0.03996045  0.18818582    -0.77200
O30         O  0.72650437  0.02295858  0.14008980    -0.77400
C31         C  0.74845408  0.03867358  0.14085600     1.03200
O32         O  0.75784317  0.97441066  0.14250963    -0.84700
O33         O  0.77878844  0.95866489  0.19456105    -0.81800
C34         C  0.78358181  0.95704206  0.22088188     0.98800
O35         O  0.77239668  0.97516398  0.23753382    -0.81800
O36         O  0.71460061  0.96586891  0.23175466    -0.84400
C37         C  0.69096685  0.96387044  0.21913354     1.03200
O38         O  0.68372168  0.98259048  0.20118003    -0.77200
O39         O  0.71499340  0.96359910  0.15630140    -0.77400
C40         C  0.73677598  0.95762708  0.14196755     1.03200
Cr41       Cr  0.77274433  0.99588862  0.17637035     1.93700
Cr42       Cr  0.73825559  0.00090136  0.23124668     1.93200
Cr43       Cr  0.70841701  0.00208557  0.17282759     1.39100
O44         O  0.73978906  0.00004435  0.19355866    -1.22500
O45         O  0.16862671  0.23530328  0.95874856    -0.84700
O46         O  0.21682781  0.20858410  0.97814317    -0.81800
C47         C  0.23623207  0.21505060  0.96081918     0.98700
O48         O  0.24445541  0.24060912  0.95855150    -0.81800
O49         O  0.24210601  0.29966314  0.96390993    -0.84400
C50         C  0.22303890  0.30905873  0.94710721     1.03300
O51         O  0.19710720  0.30430399  0.95190211    -0.77200
O52         O  0.14972169  0.27632775  0.96980724    -0.77400
C53         C  0.15153159  0.25521624  0.95295938     1.03200
O54         O  0.15258600  0.24666487  0.01700359    -0.84700
O55         O  0.20439566  0.22543403  0.03432063    -0.81800
C56         C  0.23098362  0.22209117  0.03652908     0.98800
O57         O  0.24764959  0.23435128  0.01917612    -0.81800
O58         O  0.24208955  0.29246159  0.02548210    -0.84400
C59         C  0.22945017  0.31615107  0.02665131     1.03200
O60         O  0.21039910  0.32207519  0.00855585    -0.77200
O61         O  0.16709330  0.28912355  0.02869574    -0.77400
C62         C  0.15338893  0.26688955  0.03474957     1.03200
Cr63       Cr  0.18665844  0.23143556  0.99667045     1.93700
Cr64       Cr  0.24132746  0.26686547  0.99178699     1.93200
Cr65       Cr  0.18247275  0.29567582  0.98999589     1.39100
O66         O  0.20373826  0.26465696  0.99257603    -1.22500
O67         O  0.15107336  0.75171210  0.01083553    -0.84700
O68         O  0.20089655  0.77492622  0.02970194    -0.81800
C69         C  0.22707893  0.77920221  0.03340938     0.98700
O70         O  0.24506857  0.76742016  0.01705485    -0.81800
O71         O  0.23989982  0.70983122  0.02624695    -0.84400
C72         C  0.22852212  0.68553015  0.02711434     1.03300
O73         O  0.21135247  0.67805645  0.00771833    -0.77200
O74         O  0.16559407  0.70957468  0.02374865    -0.77400
C75         C  0.15157162  0.73182603  0.02902081     1.03200
O76         O  0.16962437  0.76155982  0.95312344    -0.84700
O77         O  0.21664293  0.79001189  0.97316711    -0.81800
C78         C  0.23687815  0.78265368  0.95705827     0.98800
O79         O  0.24543786  0.75713146  0.95659390    -0.81800
O80         O  0.24497201  0.69847145  0.96594243    -0.84400
C81         C  0.22775894  0.68830826  0.94766685     1.03200
O82         O  0.20143084  0.69317995  0.94945495    -0.77200
O83         O  0.15153526  0.71991503  0.96379015    -0.77400
C84         C  0.15270885  0.74147377  0.94750824     1.03200
Cr85       Cr  0.18570736  0.76718827  0.99142165     1.93700
Cr86       Cr  0.24117669  0.73312935  0.99126540     1.93200
Cr87       Cr  0.18369437  0.70246884  0.98636064     1.39100
O88         O  0.20366886  0.73428143  0.98939768    -1.22500
O89         O  0.03854604  0.16593720  0.75611664    -0.84700
O90         O  0.01635971  0.21312030  0.78210829    -0.81800
C91         C  0.03421936  0.23223045  0.77577185     0.98700
O92         O  0.03637271  0.24075274  0.75028867    -0.81800
O93         O  0.03047492  0.23973574  0.69081242    -0.84400
C94         C  0.04850262  0.22198033  0.68110401     1.03300
O95         O  0.04577781  0.19575730  0.68627149    -0.77200
O96         O  0.03080427  0.14700012  0.71420695    -0.77400
C97         C  0.04613019  0.14938870  0.73644820     1.03200
O98         O  0.98226265  0.14627991  0.74251543    -0.84700
O99         O  0.96134924  0.19698970  0.76176369    -0.81800
C100        C  0.95802697  0.22313443  0.76682636     0.98800
O101        O  0.97529232  0.24118136  0.75646195    -0.81800
O102        O  0.96925658  0.23517419  0.69857649    -0.84400
C103        C  0.96877207  0.22257503  0.67485524     1.03200
O104        O  0.98831206  0.20528230  0.66823605    -0.77200
O105        O  0.97095413  0.15998136  0.69988386    -0.77400
C106        C  0.96496887  0.14602418  0.72191333     1.03200
Cr107      Cr  0.99996393  0.18170958  0.75832572     1.93700
Cr108      Cr  0.00305350  0.23666692  0.72389044     1.93200
Cr109      Cr  0.00867032  0.17826354  0.69438726     1.39100
O110        O  0.00437131  0.19905578  0.72547722    -1.22500
O111        O  0.98541901  0.14386593  0.24079637    -0.84700
O112        O  0.96822246  0.19403118  0.21548741    -0.81800
C113        C  0.96495844  0.22039353  0.21091688     0.98700
O114        O  0.98161090  0.23818586  0.22270402    -0.81800
O115        O  0.96939771  0.23436817  0.27998009    -0.84400
C116        C  0.96712840  0.22290776  0.30415561     1.03300
O117        O  0.98629167  0.20607696  0.31295858    -0.77200
O118        O  0.97205602  0.15890654  0.28262555    -0.77400
C119        C  0.96774487  0.14351066  0.26110063     1.03200
O120        O  0.04406525  0.16234433  0.23325620    -0.84700
O121        O  0.02604949  0.20840423  0.20308572    -0.81800
C122        C  0.04304962  0.22761428  0.21136287     0.98800
O123        O  0.04149270  0.23771022  0.23621272    -0.81800
O124        O  0.02951360  0.23923103  0.29399889    -0.84400
C125        C  0.04756887  0.22204642  0.30459587     1.03200
O126        O  0.04524968  0.19564189  0.30038896    -0.77200
O127        O  0.03187017  0.14551258  0.27470723    -0.77400
C128        C  0.04987813  0.14749229  0.25484165     1.03200
Cr129      Cr  0.00598529  0.17829796  0.22552659     1.93700
Cr130      Cr  0.00557735  0.23472529  0.25833957     1.93200
Cr131      Cr  0.00871589  0.17781995  0.29036339     1.39100
O132        O  0.00675797  0.19704119  0.25805886    -1.22500
O133        O  0.02761904  0.85330388  0.24323526    -0.84700
O134        O  0.04707212  0.80389702  0.21763735    -0.81800
C135        C  0.05021924  0.77773992  0.21199229     0.98700
O136        O  0.03363018  0.75931819  0.22306255    -0.81800
O137        O  0.04186443  0.75969605  0.28109690    -0.84400
C138        C  0.04400079  0.77109900  0.30533255     1.03300
O139        O  0.02584997  0.78919302  0.31348062    -0.77200
O140        O  0.04176663  0.83607366  0.28379711    -0.77400
C141        C  0.04609967  0.85195606  0.26272916     1.03200
O142        O  0.97017506  0.83362714  0.23256092    -0.84700
O143        O  0.99108818  0.78955244  0.20146849    -0.81800
C144        C  0.97263969  0.77109994  0.20769219     0.98800
O145        O  0.97260794  0.75975129  0.23209846    -0.81800
O146        O  0.98083257  0.75638784  0.29091213    -0.84400
C147        C  0.96403122  0.77411370  0.30266223     1.03200
O148        O  0.96784247  0.80053193  0.29978368    -0.77200
O149        O  0.98135908  0.85055567  0.27451373    -0.77400
C150        C  0.96370477  0.84805733  0.25418672     1.03200
Cr151      Cr  0.00884312  0.81891070  0.22609383     1.93700
Cr152      Cr  0.00717702  0.76141128  0.25700541     1.93200
Cr153      Cr  0.00446193  0.81792730  0.29055956     1.39100
O154        O  0.00679134  0.79915097  0.25798532    -1.22500
O155        O  0.84322090  0.76566367  0.95493314    -0.84700
O156        O  0.79319355  0.79019480  0.97084802    -0.81800
C157        C  0.77533725  0.78116810  0.95278859     0.98700
O158        O  0.76752463  0.75539092  0.95263135    -0.81800
O159        O  0.77085537  0.69673260  0.96215985    -0.84400
C160        C  0.78999272  0.68709281  0.94556028     1.03300
O161        O  0.81549053  0.69449651  0.94904522    -0.77200
O162        O  0.86228690  0.72433475  0.96580713    -0.77400
C163        C  0.86067221  0.74603118  0.94971388     1.03200
O164        O  0.85841120  0.75636874  0.01347681    -0.84700
O165        O  0.80575587  0.77571390  0.02864094    -0.81800
C166        C  0.77928055  0.77934515  0.03018001     0.98800
O167        O  0.76303560  0.76647398  0.01270666    -0.81800
O168        O  0.77122166  0.70867106  0.02309607    -0.84400
C169        C  0.78441158  0.68531005  0.02519267     1.03200
O170        O  0.80296491  0.67887840  0.00678565    -0.77200
O171        O  0.84564310  0.71315765  0.02510445    -0.77400
C172        C  0.85871331  0.73582454  0.03086819     1.03200
Cr173      Cr  0.82405385  0.76950300  0.99171920     1.93700
Cr174      Cr  0.77079715  0.73189259  0.98767843     1.93200
Cr175      Cr  0.83020494  0.70497639  0.98681753     1.39100
O176        O  0.80826451  0.73548009  0.98833538    -1.22500
O177        O  0.25025481  0.03359567  0.83423413    -0.84700
O178        O  0.21773769  0.01468873  0.78967172    -0.81800
C179        C  0.22254511  0.03294209  0.77057313     0.98700
O180        O  0.24705597  0.03505568  0.75983664    -0.81800
O181        O  0.30533317  0.02784737  0.75349698    -0.84400
C182        C  0.31712283  0.04477324  0.77100162     1.03300
O183        O  0.31609004  0.03994821  0.79736749    -0.77200
O184        O  0.29354518  0.02320035  0.84797234    -0.77400
C185        C  0.27196366  0.03938201  0.84894738     1.03200
O186        O  0.26279970  0.97607006  0.84979391    -0.84700
O187        O  0.23640545  0.95829851  0.80057209    -0.81800
C188        C  0.22919384  0.95650047  0.77479461     0.98800
O189        O  0.23891763  0.97415658  0.75675214    -0.81800
O190        O  0.29693005  0.96680988  0.75451696    -0.84400
C191        C  0.32157056  0.96457649  0.76497098     1.03200
O192        O  0.33035977  0.98208982  0.78347216    -0.77200
O193        O  0.30337611  0.96371374  0.83150857    -0.77400
C194        C  0.28327599  0.95875058  0.84849165     1.03200
Cr195      Cr  0.24415168  0.99594914  0.81714261     1.93700
Cr196      Cr  0.27243240  0.00093287  0.75885891     1.93200
Cr197      Cr  0.30842518  0.00202636  0.81386064     1.39100
O198        O  0.27511318  0.99974012  0.79643273    -1.22500
O199        O  0.98244768  0.85943334  0.74048915    -0.84700
O200        O  0.96256159  0.80790994  0.76064662    -0.81800
C201        C  0.96025938  0.78145429  0.76506406     0.98700
O202        O  0.97733978  0.76422149  0.75316091    -0.81800
O203        O  0.97090243  0.77033849  0.69494325    -0.84400
C204        C  0.97011195  0.78350521  0.67148980     1.03300
O205        O  0.98925435  0.80146698  0.66548940    -0.77200
O206        O  0.97169193  0.84611469  0.69751801    -0.77400
C207        C  0.96538185  0.85967165  0.71971593     1.03200
O208        O  0.03923023  0.84014816  0.75309809    -0.84700
O209        O  0.01816645  0.79296618  0.77873438    -0.81800
C210        C  0.03604836  0.77394798  0.77225618     0.98800
O211        O  0.03814825  0.76559432  0.74673208    -0.81800
O212        O  0.03200735  0.76719607  0.68756011    -0.84400
C213        C  0.05009005  0.78511523  0.67839106     1.03200
O214        O  0.04690332  0.81136449  0.68328278    -0.77200
O215        O  0.03125506  0.85980178  0.71156565    -0.77400
C216        C  0.04704931  0.85627400  0.73321298     1.03200
Cr217      Cr  0.00089019  0.82413866  0.75580684     1.93700
Cr218      Cr  0.00466933  0.76951988  0.72050990     1.93200
Cr219      Cr  0.00947105  0.82837425  0.69170575     1.39100
O220        O  0.00521582  0.80717801  0.72260801    -1.22500
O221        O  0.86006599  0.24810530  0.01376088    -0.84700
O222        O  0.80918886  0.22665774  0.03412616    -0.81800
C223        C  0.78294339  0.22143036  0.03612483     0.98700
O224        O  0.76539824  0.23274558  0.01888292    -0.81800
O225        O  0.76949244  0.29090434  0.02531581    -0.84400
C226        C  0.78155809  0.31492885  0.02618178     1.03300
O227        O  0.79972520  0.32171434  0.00758380    -0.77200
O228        O  0.84541918  0.29046135  0.02553182    -0.77400
C229        C  0.86019887  0.26872060  0.03102292     1.03200
O230        O  0.84045016  0.23539541  0.95722612    -0.84700
O231        O  0.79440692  0.20805235  0.97858500    -0.81800
C232        C  0.77585111  0.21405718  0.96003819     0.98800
O233        O  0.76670248  0.23936844  0.95809167    -0.81800
O234        O  0.76624417  0.29859959  0.96408826    -0.84400
C235        C  0.78401220  0.30842042  0.94624625     1.03200
O236        O  0.81029728  0.30465981  0.95005566    -0.77200
O237        O  0.85891098  0.27742476  0.96566820    -0.77400
C238        C  0.85536277  0.25619924  0.94929533     1.03200
Cr239      Cr  0.82499541  0.23194184  0.99567924     1.93700
Cr240      Cr  0.76958009  0.26559733  0.99157748     1.93200
Cr241      Cr  0.82735613  0.29633368  0.98756893     1.39100
O242        O  0.80713314  0.26472786  0.99143252    -1.22500
O243        O  0.75460589  0.97538615  0.84253746    -0.84700
O244        O  0.77779584  0.95761865  0.79147644    -0.81800
C245        C  0.78203360  0.95550957  0.76498758     0.98700
O246        O  0.77058043  0.97318188  0.74796861    -0.81800
O247        O  0.71248304  0.96619490  0.75047311    -0.84400
C248        C  0.68833236  0.96474943  0.76208859     1.03300
O249        O  0.68174501  0.98227573  0.78140007    -0.77200
O250        O  0.71266613  0.96350385  0.82690352    -0.77400
C251        C  0.73408235  0.95796591  0.84203574     1.03200
O252        O  0.76579650  0.03368945  0.82551832    -0.84700
O253        O  0.79466893  0.01405423  0.77922942    -0.81800
C254        C  0.78870681  0.03227322  0.76043384     0.98800
O255        O  0.76350383  0.03421960  0.75111041    -0.81800
O256        O  0.70438763  0.02742708  0.74985111    -0.84400
C257        C  0.69351854  0.04387950  0.76836047     1.03200
O258        O  0.69777157  0.03949595  0.79442477    -0.77200
O259        O  0.72418126  0.02279083  0.84297444    -0.77400
C260        C  0.74481436  0.04007869  0.84087455     1.03200
Cr261      Cr  0.77075806  0.99547225  0.80858597     1.93700
Cr262      Cr  0.73763267  0.00024541  0.75258259     1.93200
Cr263      Cr  0.70643111  0.00173128  0.81009697     1.39100
O264        O  0.73819936  0.99915505  0.79019884    -1.22500
O265        O  0.53825881  0.26563407  0.32693584    -0.84700
O266        O  0.51663148  0.29422637  0.28061852    -0.81800
C267        C  0.53451916  0.28791036  0.26166385     0.98700
O268        O  0.53627532  0.26256386  0.25263075    -0.81800
O269        O  0.52995669  0.20335321  0.25108066    -0.84400
C270        C  0.54645210  0.19165224  0.26910025     1.03300
O271        O  0.54278162  0.19527602  0.29538555    -0.77200
O272        O  0.52930015  0.22296655  0.34416988    -0.77400
C273        C  0.54502960  0.24493487  0.34265793     1.03200
O274        O  0.48197857  0.25362768  0.34628999    -0.84700
O275        O  0.46138923  0.27515142  0.29605628    -0.81800
C276        C  0.45798278  0.28009329  0.26992846     0.98800
O277        O  0.47502511  0.26946337  0.25182114    -0.81800
O278        O  0.46868796  0.21100049  0.25403812    -0.84400
C279        C  0.46721941  0.18696198  0.26611971     1.03200
O280        O  0.48488659  0.18044753  0.28534823    -0.77200
O281        O  0.46888200  0.21183047  0.33148553    -0.77400
C282        C  0.46444836  0.23327279  0.34697678     1.03200
Cr283      Cr  0.49985022  0.26966025  0.31114804     1.93700
Cr284      Cr  0.50259643  0.23649013  0.25512215     1.93200
Cr285      Cr  0.50615543  0.20507741  0.31275205     1.39100
O286        O  0.50316710  0.23691969  0.29279327    -1.22500
O287        O  0.34151647  0.53647606  0.24848133    -0.84700
O288        O  0.29630271  0.51922985  0.27991504    -0.81800
C289        C  0.27642134  0.53604357  0.27332311     0.98700
O290        O  0.26496254  0.53513786  0.24896221    -0.81800
O291        O  0.26278617  0.52606310  0.19033205    -0.84400
C292        C  0.28060491  0.54255887  0.17835906     1.03300
O293        O  0.30694523  0.53939890  0.18236099    -0.77200
O294        O  0.35716826  0.52360402  0.20660780    -0.77400
C295        C  0.35725966  0.54086796  0.22732859     1.03200
O296        O  0.35738606  0.47836224  0.23917615    -0.84700
O297        O  0.30844946  0.46159009  0.26613323    -0.81800
C298        C  0.28233007  0.45908750  0.27151802     0.98800
O299        O  0.26425602  0.47504829  0.25920695    -0.81800
O300        O  0.26543076  0.46498988  0.20081620    -0.84400
C301        C  0.27542371  0.46413899  0.17588711     1.03200
O302        O  0.29374359  0.48225651  0.16839234    -0.77200
O303        O  0.33979376  0.46398153  0.19878351    -0.77400
C304        C  0.35483742  0.45926227  0.22046148     1.03200
Cr305      Cr  0.32454595  0.49903419  0.25604644     1.93700
Cr306      Cr  0.26708026  0.50030568  0.22464610     1.93200
Cr307      Cr  0.32328482  0.50211702  0.19147271     1.39100
O308        O  0.30471913  0.50076288  0.22412074    -1.22500
O309        O  0.25542438  0.35540137  0.51707249    -0.84700
O310        O  0.27837540  0.30426476  0.53516203    -0.81800
C311        C  0.28282912  0.27778597  0.53743374     0.98700
O312        O  0.27138213  0.26058926  0.51993955    -0.81800
O313        O  0.21355602  0.26467191  0.52756669    -0.84400
C314        C  0.18934503  0.27624155  0.52865505     1.03300
O315        O  0.18220347  0.29438811  0.51006453    -0.77200
O316        O  0.21347042  0.33959641  0.52885569    -0.77400
C317        C  0.23506367  0.35439339  0.53455219     1.03200
O318        O  0.26700369  0.33798535  0.45919541    -0.84700
O319        O  0.29526257  0.29107651  0.47874785    -0.81800
C320        C  0.28881350  0.27187493  0.46098623     0.98800
O321        O  0.26347686  0.26293909  0.45917601    -0.81800
O322        O  0.20453131  0.26253863  0.46633430    -0.84400
C323        C  0.19419031  0.28064219  0.44902703     1.03200
O324        O  0.19843857  0.30695579  0.45278567    -0.77200
O325        O  0.22527902  0.35603339  0.46961441    -0.77400
C326        C  0.24648742  0.35410083  0.45308787     1.03200
Cr327      Cr  0.27163134  0.32110599  0.49723405     1.93700
Cr328      Cr  0.23807982  0.26534136  0.49320696     1.93200
Cr329      Cr  0.20715018  0.32302731  0.49056520     1.39100
O330        O  0.23893752  0.30298151  0.49342060    -1.22500
O331        O  0.25717012  0.64460539  0.46791546    -0.84700
O332        O  0.27625030  0.69562207  0.44523534    -0.81800
C333        C  0.28076599  0.72198272  0.44216190     0.98700
O334        O  0.27045737  0.73967683  0.45988261    -0.81800
O335        O  0.21255606  0.73445279  0.45535750    -0.84400
C336        C  0.18893076  0.72167234  0.45482512     1.03300
O337        O  0.18289708  0.70352596  0.47387927    -0.77200
O338        O  0.21376827  0.65719381  0.45803551    -0.77400
C339        C  0.23539884  0.64254676  0.45229872     1.03200
O340        O  0.27164083  0.66552414  0.52320696    -0.84700
O341        O  0.29654506  0.71221625  0.49976547    -0.81800
C342        C  0.29071404  0.73043158  0.51866831     0.98800
O343        O  0.26537446  0.73905932  0.52129744    -0.81800
O344        O  0.20608914  0.73905094  0.51612576    -0.84400
C345        C  0.19672554  0.72160736  0.53451924     1.03200
O346        O  0.20150742  0.69532958  0.53190421    -0.77200
O347        O  0.22934513  0.64646505  0.51773806    -0.77400
C348        C  0.25217435  0.64937290  0.53201768     1.03200
Cr349      Cr  0.27293197  0.68058096  0.48434001     1.93700
Cr350      Cr  0.23855908  0.73542532  0.48834434     1.93200
Cr351      Cr  0.20912277  0.67702948  0.49497135     1.39100
O352        O  0.24003838  0.69777230  0.48933095    -1.22500
O353        O  0.34558517  0.45770737  0.74060402    -0.84700
O354        O  0.30333769  0.47648412  0.70568120    -0.81800
C355        C  0.28317602  0.46007822  0.71236309     0.98700
O356        O  0.27107844  0.46276097  0.73616399    -0.81800
O357        O  0.26660295  0.47497805  0.79340705    -0.84400
C358        C  0.28337281  0.45856740  0.80691221     1.03300
O359        O  0.30993299  0.46183226  0.80583160    -0.77200
O360        O  0.36130996  0.47251329  0.78187186    -0.77400
C361        C  0.35940589  0.45320985  0.76311633     1.03200
O362        O  0.36599083  0.51606358  0.74659588    -0.84700
O363        O  0.31844521  0.53367903  0.71735352    -0.81800
C364        C  0.29264574  0.53750285  0.71084169     0.98800
O365        O  0.27327758  0.52283082  0.72273629    -0.81800
O366        O  0.27177252  0.53540490  0.78034605    -0.84400
C367        C  0.28242245  0.53881235  0.80482607     1.03200
O368        O  0.30000067  0.52102262  0.81472050    -0.77200
O369        O  0.34809665  0.53355113  0.78540869    -0.77400
C370        C  0.36487936  0.53594450  0.76473958     1.03200
Cr371      Cr  0.33199287  0.49604445  0.72994349     1.93700
Cr372      Cr  0.27342815  0.49896695  0.75850362     1.93200
Cr373      Cr  0.32864760  0.49730716  0.79444849     1.39100
O374        O  0.31105514  0.49744903  0.76102900    -1.22500
O375        O  0.48029113  0.74538606  0.33784128    -0.84700
O376        O  0.46607902  0.72381921  0.28550449    -0.81800
C377        C  0.46513277  0.72024810  0.25893445     0.98700
O378        O  0.48291738  0.73256161  0.24288472    -0.81800
O379        O  0.47104957  0.78997688  0.24850487    -0.84400
C380        C  0.46845553  0.81375059  0.26085141     1.03300
O381        O  0.48560678  0.82080023  0.28036379    -0.77200
O382        O  0.46728876  0.78755427  0.32389615    -0.77400
C383        C  0.46169820  0.76480956  0.33693854     1.03200
O384        O  0.53955287  0.73784177  0.32358956    -0.84700
O385        O  0.52439928  0.71054222  0.27499623    -0.81800
C386        C  0.54319187  0.71927931  0.25793821     0.98800
O387        O  0.54245160  0.74448063  0.24836505    -0.81800
O388        O  0.53090331  0.80272599  0.24906279    -0.84400
C389        C  0.54647601  0.81405649  0.26801740     1.03200
O390        O  0.54301801  0.80816759  0.29397080    -0.77200
O391        O  0.52676627  0.77880047  0.34160344    -0.77400
C392        C  0.54445757  0.75843754  0.34012741     1.03200
Cr393      Cr  0.50272224  0.73182018  0.30440738     1.93700
Cr394      Cr  0.50675296  0.76739534  0.24992667     1.93200
Cr395      Cr  0.50562189  0.79648095  0.30867706     1.39100
O396        O  0.50532768  0.76528835  0.28752850    -1.22500
O397        O  0.66923177  0.46738815  0.24741544    -0.84700
O398        O  0.71665911  0.48067128  0.27747759    -0.81800
C399        C  0.73552911  0.46309702  0.26964363     0.98700
O400        O  0.74672774  0.46483405  0.24531967    -0.81800
O401        O  0.74869276  0.47616834  0.18747906    -0.84400
C402        C  0.73054233  0.45937679  0.17637196     1.03300
O403        O  0.70438494  0.46295342  0.18100203    -0.77200
O404        O  0.65420098  0.47981412  0.20521640    -0.77400
C405        C  0.65289571  0.46326323  0.22655400     1.03200
O406        O  0.65669548  0.52703320  0.23922174    -0.84700
O407        O  0.70719827  0.54013252  0.26561262    -0.81800
C408        C  0.73339676  0.54091124  0.27120292     0.98800
O409        O  0.75046666  0.52416566  0.25867687    -0.81800
O410        O  0.74775128  0.53675987  0.20047368    -0.84400
C411        C  0.73799960  0.53808268  0.17542156     1.03200
O412        O  0.71909799  0.52058368  0.16735884    -0.77200
O413        O  0.67297140  0.53908397  0.19736458    -0.77400
C414        C  0.65805269  0.54462863  0.21886573     1.03200
Cr415      Cr  0.68881100  0.50370016  0.25498004     1.93700
Cr416      Cr  0.74560478  0.50067502  0.22285379     1.93200
Cr417      Cr  0.68892474  0.50071725  0.19019866     1.39100
O418        O  0.70787015  0.50153433  0.22275794    -1.22500
O419        O  0.75554383  0.65031890  0.51758367    -0.84700
O420        O  0.73251352  0.70143854  0.53588038    -0.81800
C421        C  0.72728877  0.72782552  0.53768138     0.98700
O422        O  0.73773890  0.74496164  0.51953614    -0.81800
O423        O  0.79611897  0.74312379  0.52517602    -0.84400
C424        C  0.82060120  0.73207079  0.52589774     1.03300
O425        O  0.82711807  0.71259076  0.50848395    -0.77200
O426        O  0.79764841  0.66638655  0.52822583    -0.77400
C427        C  0.77668598  0.65081178  0.53420247     1.03200
O428        O  0.74176249  0.66659390  0.46017243    -0.84700
O429        O  0.71325091  0.71309046  0.48001135    -0.81800
C430        C  0.71847526  0.73156153  0.46124664     0.98800
O431        O  0.74348772  0.74119560  0.45855391    -0.81800
O432        O  0.80292940  0.74358237  0.46394016    -0.84400
C433        C  0.81356857  0.72510751  0.44726403     1.03200
O434        O  0.80967413  0.69892049  0.45171389    -0.77200
O435        O  0.78432305  0.65001687  0.46904667    -0.77400
C436        C  0.76247427  0.65108492  0.45311186     1.03200
Cr437      Cr  0.73821473  0.68405975  0.49807707     1.93700
Cr438      Cr  0.77022714  0.74050859  0.49181287     1.93200
Cr439      Cr  0.80233031  0.68326787  0.48973091     1.39100
O440        O  0.77034175  0.70280358  0.49310777    -1.22500
O441        O  0.65511077  0.52848829  0.74070033    -0.84700
O442        O  0.70646761  0.54131283  0.71560144    -0.81800
C443        C  0.73280263  0.54144399  0.71054244     0.98700
O444        O  0.74880746  0.52292792  0.72195653    -0.81800
O445        O  0.74636976  0.53159924  0.78005522    -0.84400
C446        C  0.73597071  0.53289370  0.80475776     1.03300
O447        O  0.71714875  0.51511157  0.81217669    -0.77200
O448        O  0.67142805  0.53710270  0.78349111    -0.77400
C449        C  0.65631781  0.54433661  0.76249195     1.03200
O450        O  0.66577094  0.46921178  0.72860869    -0.84700
O451        O  0.71357339  0.48276101  0.69951401    -0.81800
C452        C  0.73164504  0.46383990  0.70611430     0.98800
O453        O  0.74250900  0.46306381  0.73073084    -0.81800
O454        O  0.74508900  0.47063768  0.78943494    -0.84400
C455        C  0.72645105  0.45369832  0.79919787     1.03200
O456        O  0.70036231  0.45844467  0.79513196    -0.77200
O457        O  0.65133951  0.47952685  0.77152984    -0.77400
C458        C  0.65020699  0.46382774  0.74965575     1.03200
Cr459      Cr  0.68651870  0.50513065  0.72356203     1.93700
Cr460      Cr  0.74291787  0.49725467  0.75570464     1.93200
Cr461      Cr  0.68637424  0.49771598  0.78816298     1.39100
O462        O  0.70532377  0.49989797  0.75572719    -1.22500
O463        O  0.52991967  0.74747185  0.64012500    -0.84700
O464        O  0.54753152  0.72611200  0.69220081    -0.81800
C465        C  0.54956814  0.72243486  0.71878899     0.98700
O466        O  0.53170431  0.73413770  0.73526711    -0.81800
O467        O  0.53965466  0.79198464  0.72865902    -0.84400
C468        C  0.54095449  0.81551870  0.71562932     1.03300
O469        O  0.52149764  0.82226123  0.69826332    -0.77200
O470        O  0.53979780  0.79073859  0.65388891    -0.77400
C471        C  0.54634785  0.76882245  0.63999885     1.03200
O472        O  0.47184948  0.73553174  0.65655912    -0.84700
O473        O  0.49096314  0.70938071  0.70473739    -0.81800
C474        C  0.47314958  0.71612868  0.72365679     0.98800
O475        O  0.47114115  0.74172978  0.73210922    -0.81800
O476        O  0.47878014  0.80142326  0.73075955    -0.84400
C477        C  0.46129282  0.81110289  0.71249829     1.03200
O478        O  0.46390271  0.80502330  0.68655526    -0.77200
O479        O  0.48086750  0.77744867  0.63838252    -0.77400
C480        C  0.46498899  0.75564940  0.64015632     1.03200
Cr481      Cr  0.50972423  0.73209765  0.67442816     1.93700
Cr482      Cr  0.50517666  0.76738262  0.72904074     1.93200
Cr483      Cr  0.50173811  0.79654095  0.67061292     1.39100
O484        O  0.50530382  0.76530754  0.69147792    -1.22500
O485        O  0.47093254  0.26338205  0.65569314    -0.84700
O486        O  0.48580611  0.28935624  0.70425579    -0.81800
C487        C  0.46747697  0.27979177  0.72149214     0.98700
O488        O  0.46904855  0.25440989  0.73049141    -0.81800
O489        O  0.48235196  0.19660705  0.72873632    -0.84400
C490        C  0.46486651  0.18707304  0.71046159     1.03300
O491        O  0.46764725  0.19334764  0.68456624    -0.77200
O492        O  0.48266060  0.22247650  0.63659749    -0.77400
C493        C  0.46525855  0.24287957  0.63948248     1.03200
O494        O  0.53020599  0.25651642  0.64000451    -0.84700
O495        O  0.54456606  0.27772243  0.69247675    -0.81800
C496        C  0.54498662  0.28191620  0.71893207     0.98800
O497        O  0.52798932  0.26862954  0.73505691    -0.81800
O498        O  0.54191290  0.21174548  0.72729829    -0.84400
C499        C  0.54490153  0.18831612  0.71439029     1.03200
O500        O  0.52634296  0.18030411  0.69647859    -0.77200
O501        O  0.54226011  0.21318339  0.65196187    -0.77400
C502        C  0.54763477  0.23594837  0.63889813     1.03200
Cr503      Cr  0.50785342  0.26933870  0.67401584     1.93700
Cr504      Cr  0.50541775  0.23283642  0.72776043     1.93200
Cr505      Cr  0.50478626  0.20453703  0.66878658     1.39100
O506        O  0.50591114  0.23556645  0.69021296    -1.22500
O507        O  0.75984854  0.35494827  0.46471206    -0.84700
O508        O  0.73491952  0.30477762  0.44660171    -0.81800
C509        C  0.72872816  0.27862277  0.44501976     0.98700
O510        O  0.73892415  0.26106982  0.46295685    -0.81800
O511        O  0.79653107  0.26075603  0.45518576    -0.84400
C512        C  0.82081981  0.27179698  0.45247306     1.03300
O513        O  0.82927054  0.29057416  0.46992448    -0.77200
O514        O  0.80064725  0.33761060  0.45204693    -0.77400
C515        C  0.77968124  0.35339849  0.44678675     1.03200
O516        O  0.74800086  0.33845084  0.52202181    -0.84700
O517        O  0.71711858  0.29333068  0.50291003    -0.81800
C518        C  0.72216549  0.27476246  0.52163609     0.98800
O519        O  0.74694068  0.26432270  0.52371663    -0.81800
O520        O  0.80603912  0.25985337  0.51609719    -0.84400
C521        C  0.81834352  0.27781991  0.53222783     1.03200
O522        O  0.81568667  0.30415475  0.52770002    -0.77200
O523        O  0.79077620  0.35411243  0.51197158    -0.77400
C524        C  0.76945931  0.35320334  0.52850820     1.03200
Cr525      Cr  0.74232715  0.32163083  0.48430520     1.93700
Cr526      Cr  0.77243889  0.26419158  0.48953173     1.93200
Cr527      Cr  0.80670640  0.32042203  0.49020495     1.39100
O528        O  0.77394959  0.30188364  0.48821497    -1.22500
C529        C  0.64758418  0.26655023  0.55176295    -0.13700
C530        C  0.65274772  0.25265099  0.57755141     0.16700
C531        C  0.68068161  0.24389324  0.58421070     0.03000
C532        C  0.70319637  0.25049287  0.56559192    -0.12200
C533        C  0.69814197  0.26551921  0.54012694    -0.03300
C534        C  0.66964125  0.27288132  0.53306788     0.02200
C535        C  0.62815772  0.24793078  0.59670684     0.09000
N536        N  0.68657380  0.22920424  0.61018683     0.65400
H537        H  0.72470735  0.24446425  0.57141884     0.18300
N538        N  0.66244026  0.28660551  0.50681818     0.75900
H539        H  0.62602710  0.27261309  0.54604025     0.09800
C540        C  0.61200656  0.27137389  0.60628458     0.03500
C541        C  0.58557026  0.26690946  0.61909041    -0.05200
C542        C  0.57481975  0.23925380  0.62318412    -0.23600
C543        C  0.59143083  0.21563960  0.61434431     0.12800
C544        C  0.61789447  0.22020362  0.60123888    -0.12700
N545        N  0.62231698  0.29992602  0.60306965     0.64400
H546        H  0.57368616  0.28529595  0.62648726     0.12300
N547        N  0.58110096  0.18704242  0.61705508     0.61100
H548        H  0.62975727  0.20208243  0.59320032     0.08400
O549        O  0.65595989  0.31274317  0.50672914    -0.40400
O550        O  0.65766702  0.27169290  0.48495861    -0.39600
O551        O  0.68895666  0.20238295  0.61018638    -0.39600
O552        O  0.69281731  0.24317297  0.63230185    -0.37300
O553        O  0.56002024  0.17896840  0.60241299    -0.38200
O554        O  0.59498081  0.16899593  0.63140594    -0.34300
O555        O  0.60839478  0.31775166  0.58848940    -0.35700
O556        O  0.64377518  0.30808853  0.61709137    -0.40000
C557        C  0.61122497  0.39620495  0.77080547    -0.13700
C558        C  0.60592120  0.38415000  0.74398891     0.16700
C559        C  0.61186069  0.40011702  0.71922147     0.03000
C560        C  0.62477125  0.42685928  0.72178675    -0.12200
C561        C  0.63157671  0.43838223  0.74854584    -0.03300
C562        C  0.62361351  0.42327829  0.77330748     0.02200
C563        C  0.59331590  0.35528925  0.74211379     0.09000
N564        N  0.60462334  0.38965588  0.69140991     0.65400
H565        H  0.62972051  0.43868572  0.70259358     0.18300
N566        N  0.62845074  0.43478086  0.80108506     0.75900
H567        H  0.60595577  0.38437795  0.78992130     0.09800
C568        C  0.60611947  0.33333394  0.72591468     0.03500
C569        C  0.59036722  0.30872961  0.71952800    -0.05200
C570        C  0.56282977  0.30503523  0.73028108    -0.23600
C571        C  0.55122695  0.32586451  0.74858806     0.12800
C572        C  0.56645045  0.35084596  0.75413498    -0.12700
N573        N  0.63477971  0.33592558  0.71565289     0.64400
H574        H  0.59947987  0.29249646  0.70585905     0.12300
N575        N  0.52284732  0.32342587  0.75920678     0.61100
H576        H  0.55651853  0.36759079  0.76656716     0.08400
O577        O  0.64663057  0.42341204  0.81732129    -0.40400
O578        O  0.61125758  0.45286677  0.81105819    -0.39600
O579        O  0.57953887  0.38157068  0.68608224    -0.39600
O580        O  0.62236275  0.39142716  0.67135065    -0.37300
O581        O  0.51878870  0.31306610  0.78365023    -0.38200
O582        O  0.50297487  0.33685765  0.74703464    -0.34300
O583        O  0.65405838  0.34563563  0.73173323    -0.35700
O584        O  0.64151800  0.32572942  0.69171881    -0.40000
C585        C  0.60452102  0.60273573  0.74184282    -0.13700
C586        C  0.61789004  0.62689433  0.75327885     0.16700
C587        C  0.64216161  0.62347674  0.77060100     0.03000
C588        C  0.65334177  0.59602366  0.77520623    -0.12200
C589        C  0.64077311  0.57189486  0.76248079    -0.03300
C590        C  0.61550291  0.57537089  0.74651418     0.02200
C591        C  0.60543673  0.65521726  0.74692769     0.09000
N592        N  0.65645690  0.64773220  0.78235409     0.65400
H593        H  0.67288353  0.59378240  0.78733708     0.18300
N594        N  0.60046749  0.55123316  0.73540014     0.75900
H595        H  0.58528675  0.60519307  0.72925568     0.09800
C596        C  0.60857156  0.66740262  0.71976300     0.03500
C597        C  0.59142552  0.69044888  0.71160331    -0.05200
C598        C  0.57104489  0.70196251  0.73025346    -0.23600
C599        C  0.56952045  0.69094753  0.75837463     0.12800
C600        C  0.58650600  0.66760000  0.76629114    -0.12700
N601        N  0.62821232  0.65561060  0.69978469     0.64400
H602        H  0.59341691  0.69865579  0.69012269     0.12300
N603        N  0.54969472  0.70194952  0.77863647     0.61100
H604        H  0.58389544  0.65821009  0.78721891     0.08400
O605        O  0.59512109  0.54959753  0.70910922    -0.40400
O606        O  0.58973515  0.53323211  0.75223478    -0.39600
O607        O  0.65884909  0.65030721  0.80899134    -0.39600
O608        O  0.66979978  0.66455623  0.76620532    -0.37300
O609        O  0.52756559  0.68791452  0.78456170    -0.38200
O610        O  0.55646045  0.72318244  0.79373528    -0.34300
O611        O  0.61915269  0.64242609  0.67816213    -0.35700
O612        O  0.65449272  0.66050950  0.70243222    -0.40000
C613        C  0.77951926  0.40837317  0.58738710    -0.13700
C614        C  0.76471740  0.39510976  0.60978608     0.16700
C615        C  0.75356943  0.36746445  0.60561733     0.03000
C616        C  0.75547723  0.35460174  0.57891829    -0.12200
C617        C  0.76938042  0.36811433  0.55622231    -0.03300
C618        C  0.78232735  0.39487176  0.56081051     0.02200
C619        C  0.75730775  0.41154724  0.63580067     0.09000
N620        N  0.74024966  0.35218624  0.62838928     0.65400
H621        H  0.74635431  0.33351757  0.57603675     0.18300
N622        N  0.79674522  0.40932507  0.53829738     0.75900
H623        H  0.78784828  0.42977708  0.59012251     0.09800
C624        C  0.77798527  0.42515250  0.65293403     0.03500
C625        C  0.76948809  0.44102015  0.67683467    -0.05200
C626        C  0.74060416  0.44359451  0.68385588    -0.23600
C627        C  0.72006807  0.42973371  0.66692372     0.12800
C628        C  0.72846125  0.41424661  0.64299545    -0.12700
N629        N  0.80757302  0.42308687  0.64630791     0.64400
H630        H  0.78542641  0.45193744  0.68952385     0.12300
N631        N  0.69068271  0.43017205  0.67463521     0.61100
H632        H  0.71227147  0.40412222  0.62996419     0.08400
O633        O  0.78307547  0.42580596  0.52200768    -0.40400
O634        O  0.82355848  0.40864452  0.53710034    -0.39600
O635        O  0.71589347  0.34133642  0.62490001    -0.46800
O636        O  0.75410644  0.34678399  0.65080267    -0.37300
O637        O  0.67232543  0.43987570  0.65752886    -0.38200
O638        O  0.68276311  0.41707159  0.69669158    -0.34300
O639        O  0.82141675  0.44522692  0.63983169    -0.35700
O640        O  0.82049783  0.39974162  0.64979373    -0.40000
C641        C  0.75230699  0.59947253  0.59151921    -0.13700
C642        C  0.76747218  0.60945830  0.61518106     0.16700
C643        C  0.78790978  0.63107595  0.61167762     0.03000
C644        C  0.79202927  0.64328085  0.58469790    -0.12200
C645        C  0.77592453  0.63411455  0.56104548    -0.03300
C646        C  0.75656132  0.61128367  0.56456133     0.02200
C647        C  0.76153328  0.59645144  0.64316526     0.09000
N648        N  0.80362156  0.64162215  0.63555484     0.65400
H649        H  0.80685155  0.66087162  0.58256568     0.18300
N650        N  0.74129427  0.59959063  0.54090048     0.75900
H651        H  0.73709974  0.58225023  0.59402872     0.09800
C652        C  0.73559705  0.60186181  0.65707192     0.03500
C653        C  0.72725655  0.58456641  0.67989262    -0.05200
C654        C  0.74441055  0.56178672  0.68923590    -0.23600
C655        C  0.77110277  0.55736073  0.67593298     0.12800
C656        C  0.77942010  0.57479946  0.65321201    -0.12700
N657        N  0.71701418  0.62407058  0.64733445     0.64400
H658        H  0.70685613  0.58855120  0.68983885     0.12300
N659        N  0.78876857  0.53361998  0.68323483     0.61100
H660        H  0.79907979  0.57016418  0.64210801     0.08400
O661        O  0.71452257  0.60149025  0.53986849    -0.40400
O662        O  0.75422425  0.58459968  0.52274592    -0.39600
O663        O  0.82886923  0.63343138  0.63969675    -0.39600
O664        O  0.79165370  0.65750348  0.65361576    -0.37300
O665        O  0.78475524  0.50983222  0.67127326    -0.38200
O666        O  0.81086019  0.53748481  0.69806902    -0.34300
O667        O  0.69146475  0.61851091  0.64110079    -0.35700
O668        O  0.72600456  0.64936958  0.64524150    -0.40000
C669        C  0.60498597  0.74602142  0.58969062    -0.13700
C670        C  0.62880902  0.75865776  0.60257447     0.16700
C671        C  0.62512931  0.77662109  0.62624162     0.03000
C672        C  0.59775445  0.78112178  0.63714747    -0.12200
C673        C  0.57393313  0.76746663  0.62500169    -0.03300
C674        C  0.57768569  0.75026800  0.60067653     0.02200
C675        C  0.65727752  0.75249030  0.59083642     0.09000
N676        N  0.64916397  0.78889484  0.64039321     0.65400
H677        H  0.59534452  0.79403429  0.65613934     0.18300
N678        N  0.55392330  0.73736765  0.58665112     0.75900
H679        H  0.60768053  0.73260194  0.57108729     0.09800
C680        C  0.66868738  0.72481467  0.59259301     0.03500
C681        C  0.69271852  0.71772115  0.57655816    -0.05200
C682        C  0.70597259  0.73795260  0.55880951    -0.23600
C683        C  0.69560322  0.76639159  0.55891257     0.12800
C684        C  0.67128816  0.77328349  0.57471596    -0.12700
N685        N  0.65532063  0.70346218  0.60978961     0.64400
H686        H  0.70036545  0.69591427  0.57728364     0.12300
N687        N  0.70844182  0.78817168  0.54193280     0.61100
H688        H  0.66255879  0.79465679  0.57338138     0.08400
O689        O  0.54907919  0.71107734  0.58985291    -0.40400
O690        O  0.54016683  0.75131262  0.56821229    -0.39600
O691        O  0.65442072  0.81516869  0.63778843    -0.39600
O692        O  0.66532732  0.77341673  0.65533505    -0.37300
O693        O  0.69635092  0.79651087  0.51939918    -0.38200
O694        O  0.72972112  0.80164416  0.55137113    -0.34300
O695        O  0.64619054  0.68075588  0.59856391    -0.35700
O696        O  0.65221098  0.70745529  0.63617431    -0.40000
C697        C  0.73359293  0.41109783  0.33034266    -0.13700
C698        C  0.76143962  0.41344625  0.34085226     0.16700
C699        C  0.78190025  0.42862653  0.32495024     0.03000
C700        C  0.77380432  0.44212100  0.29948580    -0.12200
C701        C  0.74532274  0.44177510  0.29046215    -0.03300
C702        C  0.72532047  0.42540182  0.30561768     0.02200
C703        C  0.76834771  0.40004777  0.36860195     0.09000
N704        N  0.81012671  0.43272808  0.33572169     0.65400
H705        H  0.78919252  0.45512211  0.28821940     0.18300
N706        N  0.69635954  0.42362434  0.29637927     0.75900
H707        H  0.71795923  0.39857974  0.34182797     0.09800
C708        C  0.75224861  0.40655720  0.39300535     0.03500
C709        C  0.75700355  0.39166262  0.41826988    -0.05200
C710        C  0.77753863  0.36994843  0.41995653    -0.23600
C711        C  0.79390347  0.36351531  0.39549827     0.12800
C712        C  0.78941265  0.37889143  0.37023050    -0.12700
N713        N  0.73076367  0.42816879  0.39236795     0.64400
H714        H  0.74419674  0.39703832  0.43667459     0.12300
N715        N  0.81346163  0.34011090  0.39519207     0.61100
H716        H  0.80136380  0.37322585  0.35133796     0.08400
O717        O  0.69040829  0.41097161  0.27340542    -0.40400
O718        O  0.67659126  0.43119376  0.31287060    -0.39600
O719        O  0.83132531  0.42659736  0.32047098    -0.39600
O720        O  0.81388725  0.44540869  0.35914610    -0.37300
O721        O  0.80406703  0.31487201  0.39556027    -0.38200
O722        O  0.83929591  0.34445935  0.38934437    -0.34300
O723        O  0.70498055  0.42146273  0.39578473    -0.35700
O724        O  0.73780999  0.45414541  0.39169927    -0.40000
C725        C  0.76279628  0.56377526  0.34267974    -0.13700
C726        C  0.75411824  0.59238391  0.34409744     0.16700
C727        C  0.74160774  0.60511461  0.31968956     0.03000
C728        C  0.73543453  0.58811495  0.29572795    -0.12200
C729        C  0.74340340  0.55928284  0.29479802    -0.03300
C730        C  0.75796560  0.54736753  0.31823833     0.02200
C731        C  0.75607245  0.60745085  0.37204616     0.09000
N732        N  0.73528711  0.63510884  0.31889485     0.65400
H733        H  0.72460123  0.59746226  0.27757979     0.18300
N734        N  0.76601171  0.51796304  0.31841403     0.75900
H735        H  0.77245611  0.55372558  0.36111751     0.09800
C736        C  0.73192647  0.62004858  0.38484920     0.03500
C737        C  0.73471445  0.63393946  0.41114584    -0.05200
C738        C  0.76078000  0.63464265  0.42595714    -0.23600
C739        C  0.78467642  0.62125688  0.41350181     0.12800
C740        C  0.78218484  0.60813727  0.38672418    -0.12700
N741        N  0.70420335  0.61800083  0.37208020     0.64400
H742        H  0.71599204  0.64370395  0.42037758     0.12300
N743        N  0.81167644  0.62090321  0.42757549     0.61100
H744        H  0.80080485  0.59830337  0.37734440     0.08400
O745        O  0.75229697  0.50044608  0.33348427    -0.40400
O746        O  0.78966026  0.51069790  0.30803587    -0.39600
O747        O  0.75286457  0.65292362  0.32883310    -0.39600
O748        O  0.71362163  0.64407039  0.30568717    -0.37300
O749        O  0.83105641  0.63783674  0.41985467    -0.38200
O750        O  0.81718556  0.60159280  0.44548384    -0.34300
O751        O  0.69471322  0.59406616  0.36415789    -0.35700
O752        O  0.68782839  0.63936379  0.37197118    -0.40000
C753        C  0.60373488  0.77930411  0.39218533    -0.13700
C754        C  0.62325913  0.75714368  0.38779287     0.16700
C755        C  0.61690519  0.73567584  0.36781478     0.03000
C756        C  0.59129604  0.73669451  0.35258666    -0.12200
C757        C  0.57120270  0.75849942  0.35727248    -0.03300
C758        C  0.57787233  0.78019008  0.37721075     0.02200
C759        C  0.64821619  0.75445756  0.40685828     0.09000
N760        N  0.63543646  0.71174983  0.36407208     0.65400
H761        H  0.58691432  0.71979419  0.33741601     0.18300
N762        N  0.55842560  0.80283912  0.38313179     0.75900
H763        H  0.60828350  0.79560757  0.40795547     0.09800
C764        C  0.67640919  0.75816084  0.39728185     0.03500
C765        C  0.69932231  0.75162900  0.41549805    -0.05200
C766        C  0.69444576  0.74158440  0.44325071    -0.23600
C767        C  0.66597734  0.73913668  0.45295619     0.12800
C768        C  0.64337247  0.74546356  0.43473907    -0.12700
N769        N  0.68197955  0.76866376  0.36927212     0.64400
H770        H  0.72090911  0.75383079  0.40772628     0.12300
N771        N  0.65950493  0.73000509  0.48126076     0.61100
H772        H  0.62174041  0.74262321  0.44223442     0.08400
O773        O  0.56294996  0.82737999  0.37306668    -0.40400
O774        O  0.53966793  0.79954856  0.40201835    -0.39600
O775        O  0.63661058  0.69265495  0.38298593    -0.39600
O776        O  0.64680433  0.70732031  0.34017176    -0.37300
O777        O  0.65907734  0.74802063  0.50120864    -0.38200
O778        O  0.64944152  0.70537270  0.48534388    -0.34300
O779        O  0.67609765  0.79422679  0.36318171    -0.35700
O780        O  0.69632147  0.75386354  0.35205453    -0.40000
C781        C  0.58776500  0.66829349  0.21426387    -0.13700
C782        C  0.59891724  0.65091297  0.23592716     0.16700
C783        C  0.59485233  0.65868580  0.26464668     0.03000
C784        C  0.57771108  0.68213839  0.27115548    -0.12200
C785        C  0.56537611  0.69876836  0.24958805    -0.03300
C786        C  0.57120531  0.69231407  0.22091205     0.02200
C787        C  0.61246932  0.62336862  0.22859494     0.09000
N788        N  0.60775499  0.64276283  0.28732997     0.65400
H789        H  0.57358677  0.68720608  0.29331106     0.18300
N790        N  0.55847414  0.70841530  0.19843602     0.75900
H791        H  0.59087249  0.66245512  0.19214591     0.09800
C792        C  0.60017930  0.59726800  0.23728598     0.03500
C793        C  0.61533905  0.57180846  0.23370697    -0.05200
C794        C  0.64209036  0.57168459  0.22061028    -0.23600
C795        C  0.65378300  0.59765584  0.21080543     0.12800
C796        C  0.63888736  0.62324324  0.21484888    -0.12700
N797        N  0.57220293  0.59631372  0.24938719     0.64400
H798        H  0.60599098  0.55190808  0.24084476     0.12300
N799        N  0.68174788  0.59869128  0.19895028     0.61100
H800        H  0.64854684  0.64322982  0.20840511     0.08400
O801        O  0.53697871  0.69868866  0.18551925    -0.40400
O802        O  0.57088381  0.73034257  0.18903924    -0.39600
O803        O  0.63438555  0.63924648  0.28779089    -0.39600
O804        O  0.59318873  0.63542931  0.30865345    -0.37300
O805        O  0.68496567  0.60388669  0.17280224    -0.38200
O806        O  0.70314877  0.59839470  0.21523909    -0.34300
O807        O  0.55161080  0.60789815  0.23651271    -0.35700
O808        O  0.56737121  0.58094535  0.27090878    -0.40000
C809        C  0.37101454  0.37352065  0.76573106    -0.13700
C810        C  0.40073201  0.37212793  0.76471086     0.16700
C811        C  0.41683931  0.39740288  0.76718918     0.03000
C812        C  0.40305094  0.42386603  0.76862047    -0.12200
C813        C  0.37333764  0.42539354  0.76707120    -0.03300
C814        C  0.35720026  0.39996401  0.76679955     0.02200
C815        C  0.41429075  0.34579354  0.75425086     0.09000
N816        N  0.44719871  0.39654290  0.76584180     0.65400
H817        H  0.41559404  0.44329084  0.76901859     0.18300
N818        N  0.32678251  0.40072465  0.76679199     0.75900
H819        H  0.35851060  0.35417337  0.76365352     0.09800
C820        C  0.42305797  0.32350472  0.77233845     0.03500
C821        C  0.43871488  0.30055698  0.76112269    -0.05200
C822        C  0.44561836  0.29976748  0.73202482    -0.23600
C823        C  0.43483098  0.32117973  0.71380182     0.12800
C824        C  0.41946359  0.34392163  0.72504589    -0.12700
N825        N  0.41725970  0.32456260  0.80213650     0.64400
H826        H  0.44687720  0.28430779  0.77539548     0.12300
N827        N  0.43969247  0.32034785  0.68378786     0.61100
H828        H  0.41209773  0.36071258  0.71093102     0.08400
O829        O  0.31345308  0.39312210  0.78880499    -0.40400
O830        O  0.31350791  0.40331118  0.74355238    -0.39600
O831        O  0.45960297  0.39930804  0.74221315    -0.39600
O832        O  0.46164753  0.39562860  0.78849759    -0.37300
O833        O  0.42331715  0.30581646  0.66816422    -0.38200
O834        O  0.45611789  0.33839710  0.67253604    -0.34300
O835        O  0.39608397  0.31133665  0.81201887    -0.35700
O836        O  0.43518029  0.33554540  0.81892442    -0.40000
C837        C  0.41654612  0.59206155  0.73624715    -0.13700
C838        C  0.41263591  0.61434816  0.75583018     0.16700
C839        C  0.39358553  0.61044583  0.77853985     0.03000
C840        C  0.37886812  0.58460083  0.78135612    -0.12200
C841        C  0.38253566  0.56219241  0.76169891    -0.03300
C842        C  0.40170630  0.56623866  0.73883219     0.02200
C843        C  0.42809599  0.64170171  0.75160180     0.09000
N844        N  0.38925579  0.63243665  0.79914260     0.65400
H845        H  0.36423484  0.58225783  0.79901879     0.18300
N846        N  0.40583888  0.54480550  0.71756786     0.75900
H847        H  0.43075200  0.59500920  0.71832175     0.09800
C848        C  0.45799710  0.64209487  0.74992777     0.03500
C849        C  0.47202981  0.66719360  0.74235731    -0.05200
C850        C  0.45698309  0.69245729  0.73665537    -0.23600
C851        C  0.42714483  0.69256432  0.73942823     0.12800
C852        C  0.41290479  0.66716011  0.74670406    -0.12700
N853        N  0.47439551  0.61696892  0.75537737     0.64400
H854        H  0.49501541  0.66673635  0.74017944     0.12300
N855        N  0.41098045  0.71749994  0.73269843     0.61100
H856        H  0.38983927  0.66703426  0.74741964     0.08400
O857        O  0.42887956  0.53099577  0.71690386    -0.40400
O858        O  0.38882189  0.54321484  0.69678921    -0.39600
O859        O  0.36604595  0.64596806  0.79953843    -0.39600
O860        O  0.40680961  0.63551004  0.81928489    -0.37300
O861        O  0.40683669  0.73621575  0.75154518    -0.38200
O862        O  0.39757280  0.71889224  0.70942870    -0.34300
O863        O  0.48791180  0.60524609  0.73535727    -0.35700
O864        O  0.47914153  0.60940859  0.78072573    -0.40000
C865        C  0.25169322  0.57763660  0.65334871    -0.13700
C866        C  0.27394556  0.58592823  0.63532570     0.16700
C867        C  0.30227067  0.58050039  0.64358933     0.03000
C868        C  0.30785804  0.56633187  0.66915596    -0.12200
C869        C  0.28562244  0.55687636  0.68680103    -0.03300
C870        C  0.25724617  0.56331877  0.67895853     0.02200
C871        C  0.26751856  0.60193161  0.60889475     0.09000
N872        N  0.32555312  0.58805429  0.62554089     0.65400
H873        H  0.32981900  0.56154887  0.67445226     0.18300
N874        N  0.23386316  0.55583809  0.69685469     0.75900
H875        H  0.22987175  0.58263586  0.64766188     0.09800
C876        C  0.24979377  0.59060591  0.58739877     0.03500
C877        C  0.24421054  0.60661134  0.56276997    -0.05200
C878        C  0.25665507  0.63358009  0.55891489    -0.23600
C879        C  0.27396034  0.64503094  0.58080652     0.12800
C880        C  0.27901210  0.62927739  0.60551027    -0.12700
N881        N  0.23851036  0.56237416  0.58971280     0.64400
H882        H  0.23099384  0.59746013  0.54615286     0.12300
N883        N  0.28585704  0.67304101  0.57871216     0.61100
H884        H  0.29200255  0.63852800  0.62226156     0.08400
O885        O  0.21741308  0.53575514  0.68975542    -0.40400
O886        O  0.22747456  0.57165388  0.71762157    -0.39600
O887        O  0.34348558  0.60637709  0.63372713    -0.39600
O888        O  0.33029088  0.57375567  0.60328646    -0.37300
O889        O  0.27273677  0.69391806  0.58939834    -0.38200
O890        O  0.31142089  0.67607205  0.57112853    -0.34300
O891        O  0.21211840  0.55871955  0.59299378    -0.35700
O892        O  0.25437771  0.54114600  0.58514311    -0.40000
C893        C  0.33505832  0.72091700  0.38259953    -0.13700
C894        C  0.35256229  0.74382093  0.39078516     0.16700
C895        C  0.34389611  0.76165639  0.41329930     0.03000
C896        C  0.31862597  0.75579397  0.42784250    -0.12200
C897        C  0.30207588  0.73172791  0.42106120    -0.03300
C898        C  0.30991491  0.71476197  0.39746665     0.02200
C899        C  0.38008408  0.74878252  0.37613675     0.09000
N900        N  0.36183533  0.78424900  0.42329289     0.65400
H901        H  0.31332350  0.76879574  0.44617474     0.18300
N902        N  0.29266211  0.69120212  0.38851835     0.75900
H903        H  0.34112619  0.70758863  0.36474989     0.09800
C904        C  0.40156812  0.72784911  0.37612791     0.03500
C905        C  0.42795040  0.73373999  0.36368799    -0.05200
C906        C  0.43349979  0.76020935  0.35064775    -0.23600
C907        C  0.41138984  0.78074738  0.34963728     0.12800
C908        C  0.38518174  0.77499731  0.36265349    -0.12700
N909        N  0.39709194  0.70066245  0.38919024     0.64400
H910        H  0.44417917  0.71731142  0.36425449     0.12300
N911        N  0.41476847  0.80716417  0.33481382     0.61100
H912        H  0.36853933  0.79101567  0.36197006     0.08400
O913        O  0.30292173  0.66631973  0.38787462    -0.40400
O914        O  0.26777178  0.69554661  0.37932159    -0.39600
O915        O  0.35250258  0.80947726  0.42428043    -0.39600
O916        O  0.38577032  0.77852567  0.43414293    -0.37300
O917        O  0.40906952  0.80845028  0.30857346    -0.38200
O918        O  0.41877822  0.82990360  0.34864514    -0.34300
O919        O  0.39574444  0.67846542  0.37402349    -0.35700
O920        O  0.39695330  0.69850494  0.41596288    -0.40000
C921        C  0.33469746  0.75943478  0.58098048    -0.13700
C922        C  0.36190158  0.75013221  0.57284462     0.16700
C923        C  0.36567283  0.73741678  0.54611011     0.03000
C924        C  0.34234511  0.73307898  0.52836471    -0.12200
C925        C  0.31462352  0.74077546  0.53675624    -0.03300
C926        C  0.31099155  0.75514000  0.56301801     0.02200
C927        C  0.38649453  0.75267534  0.59231318     0.09000
N928        N  0.39314304  0.72805771  0.53700821     0.65400
H929        H  0.34605272  0.72261301  0.50812683     0.18300
N930        N  0.28363530  0.76514026  0.57187865     0.75900
H931        H  0.33186218  0.76976457  0.60142574     0.09800
C932        C  0.40164816  0.77838950  0.59505841     0.03500
C933        C  0.42717102  0.77897437  0.61060432    -0.05200
C934        C  0.43813495  0.75403465  0.62334092    -0.23600
C935        C  0.42234876  0.72837778  0.62090928     0.12800
C936        C  0.39677127  0.72801673  0.60561918    -0.12700
N937        N  0.39176795  0.80380198  0.58142147     0.64400
H938        H  0.43854203  0.79901278  0.61248606     0.12300
N939        N  0.43244226  0.70219621  0.63282868     0.61100
H940        H  0.38530471  0.70806279  0.60325488     0.08400
O941        O  0.27186240  0.78532767  0.55851677    -0.40400
O942        O  0.27368085  0.75746334  0.59559682    -0.39600
O943        O  0.40132068  0.70305456  0.54274282    -0.39600
O944        O  0.40706150  0.74292349  0.51950864    -0.37300
O945        O  0.44867181  0.68637111  0.61842740    -0.38200
O946        O  0.42172190  0.69285620  0.65559348    -0.34300
O947        O  0.37888287  0.82259427  0.59566338    -0.35700
O948        O  0.39463263  0.80685250  0.55489338    -0.40000
C949        C  0.25546601  0.40759978  0.59162959    -0.13700
C950        C  0.25130938  0.39130922  0.61637396     0.16700
C951        C  0.23954027  0.36379646  0.61409480     0.03000
C952        C  0.23249825  0.35283622  0.58719678    -0.12200
C953        C  0.23766072  0.36874477  0.56237220    -0.03300
C954        C  0.24880526  0.39652896  0.56474210     0.02200
C955        C  0.25973196  0.40366209  0.64418155     0.09000
N956        N  0.23670079  0.34603813  0.63864154     0.65400
H957        H  0.22459319  0.33113600  0.58557518     0.18300
N958        N  0.25283586  0.41389718  0.54006537     0.75900
H959        H  0.26405941  0.42902947  0.59324612     0.09800
C960        C  0.28833927  0.41074285  0.64938436     0.03500
C961        C  0.29536920  0.42800789  0.67255445    -0.05200
C962        C  0.27437106  0.43837087  0.69113650    -0.23600
C963        C  0.24587601  0.42948133  0.68721540     0.12800
C964        C  0.23882798  0.41210823  0.66377545    -0.12700
N965        N  0.31038797  0.40102871  0.63081544     0.64400
H966        H  0.31749614  0.43385405  0.67569985     0.12300
N967        N  0.22359071  0.43985550  0.70512866     0.61100
H968        H  0.21670253  0.40685194  0.65975874     0.08400
O969        O  0.27766223  0.42010996  0.53199092    -0.40400
O970        O  0.23172184  0.42604115  0.52865772    -0.39600
O971        O  0.21229252  0.33987758  0.64792140    -0.39600
O972        O  0.25829041  0.33352982  0.64868439    -0.37300
O973        O  0.21675677  0.46589001  0.70424274    -0.38200
O974        O  0.20769993  0.42240274  0.71796994    -0.34300
O975        O  0.32585407  0.41881464  0.61791071    -0.35700
O976        O  0.31626993  0.37478607  0.62957148    -0.40000
C977        C  0.34221283  0.23419807  0.57088644    -0.13700
C978        C  0.35437294  0.25439479  0.58917686     0.16700
C979        C  0.34044683  0.28072518  0.59351693     0.03000
C980        C  0.31547493  0.28685472  0.57834599    -0.12200
C981        C  0.30435304  0.26748417  0.55830480    -0.03300
C982        C  0.31731118  0.24031108  0.55568312     0.02200
C983        C  0.38228679  0.24811559  0.60242143     0.09000
N984        N  0.35246692  0.30226295  0.61156940     0.65400
H985        H  0.30586261  0.30772960  0.58089189     0.18300
N986        N  0.30636542  0.21911085  0.53671419     0.75900
H987        H  0.35252578  0.21371770  0.56790404     0.09800
C988        C  0.38587034  0.24757841  0.63224610     0.03500
C989        C  0.41329954  0.24514779  0.64361050    -0.05200
C990        C  0.43711795  0.24237321  0.62589879    -0.23600
C991        C  0.43342952  0.24131922  0.59625400     0.12800
C992        C  0.40608433  0.24445247  0.58469563    -0.12700
N993        N  0.36197616  0.24922921  0.65113634     0.64400
H994        H  0.41611838  0.24530886  0.66654563     0.12300
N995        N  0.45733864  0.23884369  0.57771653     0.61100
H996        H  0.40348003  0.24486093  0.56175372     0.08400
O997        O  0.28657188  0.20289047  0.54489729    -0.40400
O998        O  0.31960567  0.21333204  0.51410445    -0.39600
O999        O  0.37686721  0.31219213  0.60631064    -0.39600
O1000       O  0.33733844  0.31394120  0.63042434    -0.37300
O1001       O  0.46686562  0.21448245  0.57141907    -0.38200
O1002       O  0.46656643  0.26058658  0.56485954    -0.34300
O1003       O  0.34070065  0.23321660  0.64729596    -0.35700
O1004       O  0.36350344  0.26405146  0.67354023    -0.40000
C1005       C  0.40675725  0.66564701  0.25428240    -0.13700
C1006       C  0.41889608  0.64634636  0.23500753     0.16700
C1007       C  0.44341404  0.65424308  0.21975472     0.03000
C1008       C  0.45660633  0.68034416  0.22568077    -0.12200
C1009       C  0.44606401  0.69831238  0.24716135    -0.03300
C1010       C  0.42017503  0.69145864  0.26057879     0.02200
C1011       C  0.40607452  0.61776041  0.23207889     0.09000
N1012       N  0.45658917  0.63492687  0.20024046     0.65400
H1013       H  0.47663765  0.68524252  0.21534367     0.18300
N1014       N  0.40773486  0.71010501  0.28118647     0.75900
H1015       H  0.38719517  0.66017365  0.26521220     0.09800
C1016       C  0.40263411  0.60018353  0.25614538     0.03500
C1017       C  0.38752179  0.57470186  0.25377223    -0.05200
C1018       C  0.37607563  0.56598331  0.22759177    -0.23600
C1019       C  0.38030225  0.58313206  0.20322602     0.12800
C1020       C  0.39516832  0.60893487  0.20572712    -0.12700
N1021       N  0.41415105  0.60817645  0.28321817     0.64400
H1022       H  0.38447639  0.56172700  0.27264789     0.12300
N1023       N  0.36737950  0.57613442  0.17654742     0.61100
H1024       H  0.39730345  0.62263893  0.18724868     0.08400
O1025       O  0.40488338  0.70185393  0.30658229    -0.40400
O1026       O  0.39535891  0.73257252  0.27306734    -0.39600
O1027       O  0.45910207  0.64174444  0.17438326    -0.39600
O1028       O  0.46902185  0.61291222  0.20948564    -0.37300
O1029       O  0.34822290  0.59217584  0.16659069    -0.38200
O1030       O  0.37898853  0.55794799  0.16053110    -0.34300
O1031       O  0.39774009  0.61315305  0.30385277    -0.35700
O1032       O  0.44072736  0.60794273  0.28714544    -0.40000
C1033       C  0.27775302  0.58348628  0.33750838    -0.13700
C1034       C  0.25078131  0.57816172  0.34909038     0.16700
C1035       C  0.23083380  0.56215570  0.33320448     0.03000
C1036       C  0.23848208  0.55115621  0.30648084    -0.12200
C1037       C  0.26604201  0.55514770  0.29581209    -0.03300
C1038       C  0.28561461  0.57187469  0.31131787     0.02200
C1039       C  0.24378004  0.59071759  0.37721531     0.09000
N1040       N  0.20369678  0.55496784  0.34494026     0.65400
H1041       H  0.22371260  0.53735123  0.29523610     0.18300
N1042       N  0.31388967  0.57645724  0.30104345     0.75900
H1043       H  0.29298249  0.59650078  0.34907337     0.09800
C1044       C  0.26196299  0.58675910  0.40082289     0.03500
C1045       C  0.25810129  0.60312158  0.42537040    -0.05200
C1046       C  0.23609019  0.62331810  0.42723425    -0.23600
C1047       C  0.21684469  0.62605821  0.40416707     0.12800
C1048       C  0.22086136  0.60976075  0.37947310    -0.12700
N1049       N  0.28469254  0.56643252  0.39999811     0.64400
H1050       H  0.27276981  0.60020916  0.44299411     0.12300
N1051       N  0.19451092  0.64677563  0.40448557     0.61100
H1052       H  0.20699785  0.61329080  0.36131535     0.08400
O1053       O  0.31811024  0.59374954  0.28090223    -0.40400
O1054       O  0.33485234  0.56608741  0.31433312    -0.39600
O1055       O  0.18122009  0.56056907  0.33128553    -0.39600
O1056       O  0.20231531  0.54026269  0.36740822    -0.37300
O1057       O  0.20008133  0.67255674  0.39907230    -0.38200
O1058       O  0.16891695  0.63869512  0.40553779    -0.34300
O1059       O  0.30990605  0.57428209  0.40505366    -0.35700
O1060       O  0.27919721  0.54019751  0.39736058    -0.40000
C1061       C  0.28240607  0.40305927  0.33016651    -0.13700
C1062       C  0.25730116  0.41010866  0.34468721     0.16700
C1063       C  0.23962181  0.43174421  0.33378406     0.03000
C1064       C  0.24749556  0.44634810  0.30905732    -0.12200
C1065       C  0.27302808  0.43997189  0.29485754    -0.03300
C1066       C  0.29044478  0.41777519  0.30551129     0.02200
C1067       C  0.25114340  0.39608210  0.37226747     0.09000
N1068       N  0.21370791  0.43925183  0.34776630     0.65400
H1069       H  0.23390695  0.46346700  0.30150983     0.18300
N1070       N  0.31650864  0.41017040  0.29184990     0.75900
H1071       H  0.29632300  0.38659664  0.33854211     0.09800
C1072       C  0.24839344  0.36621319  0.37407429     0.03500
C1073       C  0.24658200  0.35311060  0.40073954    -0.05200
C1074       C  0.24693785  0.36935437  0.42578826    -0.23600
C1075       C  0.24868579  0.39926767  0.42410795     0.12800
C1076       C  0.25080905  0.41244581  0.39737262    -0.12700
N1077       N  0.24703913  0.34904679  0.34893928     0.64400
H1078       H  0.24465178  0.33007409  0.40193805     0.12300
N1079       N  0.25032934  0.41624027  0.44933431     0.61100
H1080       H  0.25344957  0.43541176  0.39625133     0.08400
O1081       O  0.31670248  0.39017461  0.27386688    -0.40400
O1082       O  0.33976894  0.42005394  0.30105976    -0.39600
O1083       O  0.21069160  0.46392203  0.35811147    -0.39600
O1084       O  0.19270464  0.42249314  0.34677366    -0.37300
O1085       O  0.27364342  0.41833646  0.46257279    -0.38200
O1086       O  0.22966572  0.43192863  0.45627816    -0.34300
O1087       O  0.26631669  0.33100767  0.34391627    -0.35700
O1088       O  0.22506560  0.34970039  0.33344429    -0.40000
C1089       C  0.61711693  0.22824431  0.37459064    -0.13700
C1090       C  0.62385790  0.25436340  0.38755568     0.16700
C1091       C  0.60387958  0.27683996  0.38679572     0.03000
C1092       C  0.57808810  0.27311021  0.37240678    -0.12200
C1093       C  0.57127422  0.24694699  0.35962850    -0.03300
C1094       C  0.59089867  0.22421363  0.36101848     0.02200
C1095       C  0.65246290  0.25848613  0.40018584     0.09000
N1096       N  0.60939103  0.30342208  0.40079827     0.65400
H1097       H  0.56311067  0.29070788  0.37144381     0.18300
N1098       N  0.58552517  0.19774644  0.34685131     0.75900
H1099       H  0.63257017  0.21105094  0.37445757     0.09800
C1100       C  0.66352709  0.23942523  0.42063438     0.03500
C1101       C  0.69031175  0.24464720  0.43258360    -0.05200
C1102       C  0.70589456  0.26922958  0.42540666    -0.23600
C1103       C  0.69573461  0.28706380  0.40337611     0.12800
C1104       C  0.66920475  0.28150845  0.39101130    -0.12700
N1105       N  0.64694807  0.21603967  0.43115216     0.64400
H1106       H  0.69763032  0.23075409  0.44955421     0.12300
N1107       N  0.71190964  0.31102230  0.39359629     0.61100
H1108       H  0.66147303  0.29544799  0.37425513     0.08400
O1109       O  0.57066850  0.17890628  0.35896005    -0.40400
O1110       O  0.60003767  0.19113355  0.32527277    -0.39600
O1111       O  0.60844057  0.32647518  0.38693190    -0.39600
O1112       O  0.61268670  0.30411641  0.42746392    -0.37300
O1113       O  0.70123920  0.33573777  0.39405120    -0.38200
O1114       O  0.73585305  0.30714548  0.38212073    -0.34300
O1115       O  0.65747449  0.19127211  0.43196307    -0.35700
O1116       O  0.62309629  0.22062263  0.44257440    -0.40000
C1117       C  0.40774420  0.26043281  0.39830996    -0.13700
C1118       C  0.38777438  0.23821993  0.39753886     0.16700
C1119       C  0.39327965  0.21413332  0.38053911     0.03000
C1120       C  0.41856731  0.21258233  0.36473476    -0.12200
C1121       C  0.43873456  0.23485418  0.36546239    -0.03300
C1122       C  0.43295524  0.25903601  0.38262550     0.02200
C1123       C  0.36114996  0.24140397  0.41421851     0.09000
N1124       N  0.37359320  0.19092566  0.37949549     0.65400
H1125       H  0.42228726  0.19387463  0.35168209     0.18300
N1126       N  0.45205808  0.28274670  0.38398167     0.75900
H1127       H  0.40351287  0.27932499  0.41095993     0.09800
C1128       C  0.36250368  0.24587888  0.44382116     0.03500
C1129       C  0.33833276  0.25481367  0.45851218    -0.05200
C1130       C  0.31228402  0.25904534  0.44442585    -0.23600
C1131       C  0.31035757  0.25303524  0.41507229     0.12800
C1132       C  0.33480702  0.24426639  0.40017093    -0.12700
N1133       N  0.38856164  0.24202405  0.45913468     0.64400
H1134       H  0.34008907  0.25896635  0.48117506     0.12300
N1135       N  0.28466617  0.25849858  0.39967859     0.61100
H1136       H  0.33362789  0.24145903  0.37728570     0.08400
O1137       O  0.44786692  0.30419513  0.36827306    -0.40400
O1138       O  0.47028131  0.28409692  0.40371799    -0.39600
O1139       O  0.35860955  0.18701772  0.35750641    -0.39600
O1140       O  0.37382135  0.17233109  0.39891952    -0.37300
O1141       O  0.27855067  0.28370849  0.39247935    -0.38200
O1142       O  0.27035546  0.23796678  0.38978003    -0.34300
O1143       O  0.40089017  0.26326171  0.47017569    -0.35700
O1144       O  0.39680371  0.21714946  0.46530070    -0.40000
C1145       C  0.59727325  0.33651717  0.24641723    -0.13700
C1146       C  0.58335291  0.36096469  0.23597972     0.16700
C1147       C  0.55383200  0.35970127  0.23076764     0.03000
C1148       C  0.53851090  0.33501778  0.23791320    -0.12200
C1149       C  0.55218951  0.31117724  0.24986785    -0.03300
C1150       C  0.58195168  0.31175979  0.25353712     0.02200
C1151       C  0.59945372  0.38823511  0.23321437     0.09000
N1152       N  0.53888439  0.38391263  0.21985884     0.65400
H1153       H  0.51557991  0.33483894  0.23508985     0.18300
N1154       N  0.59652173  0.28840395  0.26668825     0.75900
H1155       H  0.62001036  0.33719933  0.25043471     0.09800
C1156       C  0.61104008  0.40154288  0.25749849     0.03500
C1157       C  0.62700903  0.42654750  0.25472068    -0.05200
C1158       C  0.63238003  0.43889169  0.22798437    -0.23600
C1159       C  0.61983259  0.42614408  0.20364816     0.12800
C1160       C  0.60358626  0.40100119  0.20647839    -0.12700
N1161       N  0.60661651  0.38990535  0.28525845     0.64400
H1162       H  0.63561080  0.43626866  0.27393623     0.12300
N1163       N  0.62410643  0.43781295  0.17589981     0.61100
H1164       H  0.59456917  0.39106844  0.18757653     0.08400
O1165       O  0.59250602  0.28305872  0.29270273    -0.40400
O1166       O  0.61633560  0.27590319  0.25359108    -0.39600
O1167       O  0.53132694  0.38441845  0.19406723    -0.39600
O1168       O  0.52979356  0.40275955  0.23672581    -0.37300
O1169       O  0.64034723  0.42523999  0.15862302    -0.38200
O1170       O  0.60796569  0.45744074  0.16705584    -0.34300
O1171       O  0.62638997  0.37624397  0.29733812    -0.35700
O1172       O  0.58516224  0.39747421  0.29947221    -0.40000
C1173       C  0.41627306  0.33382347  0.22617778    -0.13700
C1174       C  0.40434618  0.35043859  0.24782605     0.16700
C1175       C  0.40668966  0.34150254  0.27637350     0.03000
C1176       C  0.42268412  0.31722695  0.28283727    -0.12200
C1177       C  0.43641418  0.30149850  0.26133717    -0.03300
C1178       C  0.43216125  0.30945756  0.23262329     0.02200
C1179       C  0.39230152  0.37846576  0.24027227     0.09000
N1180       N  0.39354407  0.35719860  0.29899000     0.65400
H1181       H  0.42517348  0.31133681  0.30501531     0.18300
N1182       N  0.44476563  0.29383511  0.20980313     0.75900
H1183       H  0.41431410  0.34054769  0.20417037     0.09800
C1184       C  0.40496170  0.40400557  0.25003793     0.03500
C1185       C  0.39268758  0.43014687  0.24268321    -0.05200
C1186       C  0.36853643  0.43141665  0.22511850    -0.23600
C1187       C  0.35629521  0.40584676  0.21493427     0.12800
C1188       C  0.36831466  0.37964019  0.22253426    -0.12700
N1189       N  0.43058753  0.40379302  0.26676234     0.64400
H1190       H  0.40231042  0.44968042  0.25050115     0.12300
N1191       N  0.33061077  0.40603123  0.19854512     0.61100
H1192       H  0.35852020  0.36004852  0.21507704     0.08400
O1193       O  0.46536287  0.30445267  0.19625440    -0.40400
O1194       O  0.43261766  0.27170915  0.20044737    -0.39600
O1195       O  0.36698698  0.36111744  0.29874161    -0.39600
O1196       O  0.40763147  0.36348832  0.32104411    -0.37300
O1197       O  0.33163898  0.40268023  0.17191829    -0.38200
O1198       O  0.30684699  0.40586416  0.21099071    -0.34300
O1199       O  0.45188139  0.38958085  0.25860719    -0.35700
O1200       O  0.43320281  0.42052389  0.28767961    -0.40000
C1201       C  0.62174391  0.91829833  0.75831223    -0.13700
C1202       C  0.63059389  0.89649758  0.74008873     0.16700
C1203       C  0.65793524  0.89764911  0.72802233     0.03000
C1204       C  0.67620171  0.92038878  0.73477703    -0.12200
C1205       C  0.66759422  0.94225159  0.75346774    -0.03300
C1206       C  0.63970720  0.94114782  0.76492696     0.02200
C1207       C  0.60993507  0.87393990  0.73259839     0.09000
N1208       N  0.66754918  0.87562871  0.70931614     0.65400
H1209       H  0.69741756  0.92056290  0.72577745     0.18300
N1210       N  0.62892250  0.96327597  0.78285963     0.75900
H1211       H  0.60041855  0.91782390  0.76709215     0.09800
C1212       C  0.60425630  0.85123646  0.75131213     0.03500
C1213       C  0.58209535  0.83211121  0.74527290    -0.05200
C1214       C  0.56502100  0.83550125  0.72085152    -0.23600
C1215       C  0.57153112  0.85790717  0.70163509     0.12800
C1216       C  0.59377878  0.87684237  0.70773052    -0.12700
N1217       N  0.62059706  0.84769877  0.77675589     0.64400
H1218       H  0.57781760  0.81497301  0.76015887     0.12300
N1219       N  0.55604097  0.86163358  0.67566576     0.61100
H1220       H  0.59812527  0.89429752  0.69321567     0.08400
O1221       O  0.62416008  0.95821889  0.80879675    -0.40400
O1222       O  0.61990551  0.98615096  0.77189188    -0.39600
O1223       O  0.67172557  0.88106581  0.68335453    -0.39600
O1224       O  0.67538331  0.85192912  0.71939781    -0.37300
O1225       O  0.56392906  0.84861273  0.65354016    -0.38200
O1226       O  0.53806153  0.88153078  0.67360529    -0.34300
O1227       O  0.61390179  0.86118194  0.79900197    -0.35700
O1228       O  0.64024277  0.82936974  0.77766569    -0.40000
C1229       C  0.63872815  0.10369931  0.77014625    -0.13700
C1230       C  0.63700586  0.11110224  0.74139178     0.16700
C1231       C  0.65482030  0.09740585  0.72154867     0.03000
C1232       C  0.67326714  0.07572451  0.73070165    -0.12200
C1233       C  0.67464761  0.06774656  0.75954467    -0.03300
C1234       C  0.65718724  0.08228573  0.77940432     0.02200
C1235       C  0.61450133  0.13127377  0.73257372     0.09000
N1236       N  0.65470445  0.10564606  0.69222337     0.65400
H1237       H  0.68669231  0.06523837  0.71516133     0.18300
N1238       N  0.65672036  0.07466887  0.80885939     0.75900
H1239       H  0.62481143  0.11394194  0.78544133     0.09800
C1240       C  0.59088902  0.12202511  0.71645535     0.03500
C1241       C  0.56899220  0.14126158  0.71018529    -0.05200
C1242       C  0.56958898  0.16947425  0.72042103    -0.23600
C1243       C  0.59354061  0.17871240  0.73627165     0.12800
C1244       C  0.61559545  0.15952283  0.74230342    -0.12700
N1245       N  0.58794551  0.09279216  0.70787652     0.64400
H1246       H  0.55077492  0.13360403  0.69821589     0.12300
N1247       N  0.59602403  0.20747381  0.74616557     0.61100
H1248       H  0.63370618  0.16667497  0.75475911     0.08400
O1249       O  0.63871833  0.05674405  0.81763726    -0.40400
O1250       O  0.67093303  0.08908163  0.82659232    -0.39600
O1251       O  0.66395948  0.12992571  0.68520040    -0.39600
O1252       O  0.64950292  0.08736588  0.67317197    -0.37300
O1253       O  0.59544932  0.21265039  0.77252092    -0.38200
O1254       O  0.60270934  0.22704758  0.72898002    -0.34300
O1255       O  0.58884899  0.07319719  0.72629919    -0.35700
O1256       O  0.58030493  0.08685572  0.68278173    -0.40000
C1257       C  0.75865047  0.34703115  0.09677165    -0.13700
C1258       C  0.76101520  0.37622567  0.09091209     0.16700
C1259       C  0.77007021  0.38526305  0.06388854     0.03000
C1260       C  0.77685991  0.36500737  0.04311147    -0.12200
C1261       C  0.77428910  0.33565885  0.04874136    -0.03300
C1262       C  0.76530314  0.32670981  0.07599804     0.02200
C1263       C  0.75350204  0.39705685  0.11313883     0.09000
N1264       N  0.77166785  0.41494811  0.05709048     0.65400
H1265       H  0.78360369  0.37229593  0.02228878     0.18300
N1266       N  0.76435881  0.29714656  0.08339039     0.75900
H1267       H  0.75192076  0.34002318  0.11769963     0.09800
C1268       C  0.72492566  0.40396973  0.11813090     0.03500
C1269       C  0.71802730  0.42367139  0.13926833    -0.05200
C1270       C  0.73926199  0.43678023  0.15597025    -0.23600
C1271       C  0.76804429  0.42917723  0.15134134     0.12800
C1272       C  0.77490309  0.40964403  0.12976244    -0.12700
N1273       N  0.70272653  0.39153397  0.10137755     0.64400
H1274       H  0.69581194  0.42915246  0.14210401     0.12300
N1275       N  0.79040947  0.44041613  0.16873796     0.61100
H1276       H  0.79697858  0.40391593  0.12623617     0.08400
O1277       O  0.74069970  0.28472964  0.08616753    -0.40400
O1278       O  0.78692536  0.28450739  0.09069899    -0.39600
O1279       O  0.79560232  0.42680681  0.05427902    -0.39600
O1280       O  0.74933359  0.42842947  0.05058824    -0.37300
O1281       O  0.80919084  0.45625478  0.15787414    -0.38200
O1282       O  0.79367482  0.43126709  0.19380502    -0.34300
O1283       O  0.68857265  0.37085669  0.11111203    -0.35700
O1284       O  0.69510183  0.40326883  0.07841968    -0.40000
C1285       C  0.78318159  0.35358580  0.87857246    -0.13700
C1286       C  0.75570252  0.36507888  0.87945092     0.16700
C1287       C  0.73677403  0.35600950  0.90074837     0.03000
C1288       C  0.74594516  0.33657342  0.92156672    -0.12200
C1289       C  0.77401587  0.32602804  0.92171925    -0.03300
C1290       C  0.79242965  0.33408999  0.89923455     0.02200
C1291       C  0.74775894  0.38760863  0.85879239     0.09000
N1292       N  0.70860691  0.36739901  0.90223309     0.65400
H1293       H  0.73131466  0.33069074  0.93837125     0.18300
N1294       N  0.82050162  0.32259678  0.89683627     0.75900
H1295       H  0.79770957  0.36012819  0.86190198     0.09800
C1296       C  0.75830814  0.41551988  0.86213552     0.03500
C1297       C  0.75211961  0.43636084  0.84173331    -0.05200
C1298       C  0.73511652  0.42998659  0.81800621    -0.23600
C1299       C  0.72477431  0.40189078  0.81430365     0.12800
C1300       C  0.73100498  0.38097207  0.83490279    -0.12700
N1301       N  0.77459087  0.42315552  0.88672694     0.64400
H1302       H  0.75975824  0.45796573  0.84501019     0.12300
N1303       N  0.70945871  0.39400949  0.78905538     0.61100
H1304       H  0.72347256  0.35930728  0.83188818     0.08400
O1305       O  0.82459184  0.30093255  0.88143449    -0.40400
O1306       O  0.84155264  0.33716639  0.90509274    -0.39600
O1307       O  0.68747385  0.35148773  0.89739683    -0.39600
O1308       O  0.70471932  0.39250779  0.91112570    -0.37300
O1309       O  0.72044577  0.39827408  0.76492967    -0.38200
O1310       O  0.68708342  0.37921625  0.79084669    -0.34300
O1311       O  0.80067910  0.42901040  0.88431152    -0.35700
O1312       O  0.76227104  0.42703633  0.91024644    -0.40000
C1313       C  0.73751148  0.17031670  0.90244394    -0.13700
C1314       C  0.75065010  0.14368014  0.90632517     0.16700
C1315       C  0.77099217  0.14030741  0.92797949     0.03000
C1316       C  0.77796770  0.16329342  0.94540860    -0.12200
C1317       C  0.76545939  0.19036035  0.94157506    -0.03300
C1318       C  0.74461365  0.19364874  0.92001738     0.02200
C1319       C  0.74450298  0.11939470  0.88723125     0.09000
N1320       N  0.78575957  0.11385206  0.93165910     0.65400
H1321       H  0.79408925  0.15988487  0.96159638     0.18300
N1322       N  0.73041338  0.22027314  0.91578338     0.75900
H1323       H  0.72176829  0.17297418  0.88574746     0.09800
C1324       C  0.72775972  0.09624746  0.89644362     0.03500
C1325       C  0.72780613  0.07063555  0.88099766    -0.05200
C1326       C  0.74437282  0.06770326  0.85630875    -0.23600
C1327       C  0.75995065  0.09157541  0.84638510     0.12800
C1328       C  0.76003159  0.11700634  0.86199605    -0.12700
N1329       N  0.71117720  0.09833529  0.92182171     0.64400
H1330       H  0.71525370  0.05282486  0.88866412     0.12300
N1331       N  0.77542901  0.09053913  0.82024977     0.61100
H1332       H  0.77309305  0.13470117  0.85489692     0.08400
O1333       O  0.70942348  0.22675318  0.93118547    -0.40400
O1334       O  0.73626896  0.23538981  0.89435937    -0.39600
O1335       O  0.80511918  0.10692502  0.91442063    -0.39600
O1336       O  0.78253135  0.09968538  0.95426107    -0.37300
O1337       O  0.76267872  0.09530449  0.79705742    -0.38200
O1338       O  0.80225256  0.08926388  0.82068564    -0.34300
O1339       O  0.68794533  0.11183312  0.92141630    -0.35700
O1340       O  0.71771781  0.08364924  0.94337975    -0.40000
C1341       C  0.91501011  0.79265799  0.61233171    -0.13700
C1342       C  0.90183456  0.76590617  0.61241373     0.16700
C1343       C  0.91093974  0.74499547  0.63190846     0.03000
C1344       C  0.93309269  0.75108179  0.65102741    -0.12200
C1345       C  0.94685764  0.77774341  0.65072962    -0.03300
C1346       C  0.93748186  0.79873599  0.63105858     0.02200
C1347       C  0.88079063  0.75901148  0.59000458     0.09000
N1348       N  0.89852194  0.71714698  0.63174144     0.65400
H1349       H  0.93988840  0.73467998  0.66581866     0.18300
N1350       N  0.95040717  0.82635164  0.62973205     0.75900
H1351       H  0.90830032  0.80867443  0.59707551     0.09800
C1352       C  0.85137405  0.76238648  0.59433142     0.03500
C1353       C  0.83215522  0.75372163  0.57310229    -0.05200
C1354       C  0.84180463  0.74177454  0.54736962    -0.23600
C1355       C  0.87151997  0.73896340  0.54302473     0.12800
C1356       C  0.89057027  0.74768470  0.56428674    -0.12700
N1357       N  0.84079352  0.77444388  0.62019479     0.64400
H1358       H  0.80953516  0.75613772  0.57689800     0.12300
N1359       N  0.88288280  0.72770560  0.51711711     0.61100
H1360       H  0.91325151  0.74512518  0.56090244     0.08400
O1361       O  0.93597598  0.84810195  0.63620151    -0.40400
O1362       O  0.97323233  0.82950076  0.61598909    -0.39600
O1363       O  0.91105980  0.69685714  0.61934535    -0.39600
O1364       O  0.87438232  0.71310139  0.64272336    -0.37300
O1365       O  0.89822267  0.74344284  0.50167120    -0.38200
O1366       O  0.88361348  0.70102598  0.51349737    -0.34300
O1367       O  0.84469505  0.80057387  0.62543786    -0.35700
O1368       O  0.82483062  0.75989762  0.63615633    -0.40000
C1369       C  0.11764806  0.78431442  0.63353709    -0.13700
C1370       C  0.11525945  0.75784515  0.61977044     0.16700
C1371       C  0.09255477  0.73954546  0.62709473     0.03000
C1372       C  0.07239240  0.74830794  0.64720738    -0.12200
C1373       C  0.07398466  0.77535746  0.66006933    -0.03300
C1374       C  0.09737973  0.79319746  0.65347656     0.02200
C1375       C  0.13708291  0.74931332  0.59849226     0.09000
N1376       N  0.08892860  0.71252993  0.61334234     0.65400
H1377       H  0.05464687  0.73425661  0.65178814     0.18300
N1378       N  0.10137553  0.82004265  0.66738101     0.75900
H1379       H  0.13557699  0.79813691  0.62895574     0.09800
C1380       C  0.14387714  0.76699137  0.57515142     0.03500
C1381       C  0.16450577  0.75829971  0.55547829    -0.05200
C1382       C  0.17823381  0.73177488  0.55809441    -0.23600
C1383       C  0.17197402  0.71447892  0.58199797     0.12800
C1384       C  0.15172091  0.72344582  0.60190617    -0.12700
N1385       N  0.12883961  0.79307597  0.57024028     0.64400
H1386       H  0.16867423  0.77180803  0.53721791     0.12300
N1387       N  0.18607964  0.68782407  0.58653893     0.61100
H1388       H  0.14739001  0.71005099  0.62021558     0.08400
O1389       O  0.09790671  0.84293415  0.65365513    -0.40400
O1390       O  0.11292753  0.82077678  0.69164350    -0.39600
O1391       O  0.08823219  0.68993685  0.62794923    -0.39600
O1392       O  0.08347571  0.71148332  0.58704090    -0.37300
O1393       O  0.21022513  0.68738802  0.59834026    -0.38200
O1394       O  0.17277207  0.66474354  0.58266867    -0.34300
O1395       O  0.14212643  0.81648356  0.56999592    -0.35700
O1396       O  0.10294067  0.79243239  0.56307755    -0.40000
C1397       C  0.90387688  0.90350673  0.74842521    -0.13700
C1398       C  0.88108828  0.89267097  0.73238476     0.16700
C1399       C  0.88651834  0.87291641  0.71053458     0.03000
C1400       C  0.91443122  0.86366902  0.70564345    -0.12200
C1401       C  0.93726867  0.87380159  0.72228133    -0.03300
C1402       C  0.93177341  0.89436411  0.74356441     0.02200
C1403       C  0.85201263  0.90304408  0.73864276     0.09000
N1404       N  0.86370658  0.86075422  0.69441828     0.65400
H1405       H  0.91796247  0.84723962  0.68978180     0.18300
N1406       N  0.95424942  0.90623712  0.76037412     0.75900
H1407       H  0.89993531  0.91927169  0.76488015     0.09800
C1408       C  0.84039117  0.89989780  0.76607259     0.03500
C1409       C  0.81646177  0.91593887  0.77379042    -0.05200
C1410       C  0.80323152  0.93451669  0.75428599    -0.23600
C1411       C  0.81323243  0.93507428  0.72582853     0.12800
C1412       C  0.83770609  0.91973307  0.71844751    -0.12700
N1413       N  0.85315963  0.88092022  0.78637130     0.64400
H1414       H  0.80867039  0.91437225  0.79542710     0.12300
N1415       N  0.79969530  0.95208697  0.70445562     0.61100
H1416       H  0.84638766  0.92201815  0.69721013     0.08400
O1417       O  0.96952045  0.92591115  0.75025611    -0.40400
O1418       O  0.95631051  0.89990317  0.78640790    -0.39600
O1419       O  0.86056542  0.86732508  0.66855464    -0.39600
O1420       O  0.84916041  0.84071424  0.70488691    -0.37300
O1421       O  0.80949890  0.97640169  0.69837158    -0.38200
O1422       O  0.78059304  0.94120713  0.68895418    -0.34300
O1423       O  0.85743186  0.88899221  0.81165847    -0.35700
O1424       O  0.85901181  0.85557442  0.77937943    -0.40000
C1425       C  0.42097780  0.13238450  0.75081137    -0.13700
C1426       C  0.39610489  0.13146680  0.73430495     0.16700
C1427       C  0.39359942  0.14934435  0.71024669     0.03000
C1428       C  0.41645080  0.16700644  0.70267227    -0.12200
C1429       C  0.44145765  0.16786895  0.71915614    -0.03300
C1430       C  0.44356017  0.15033708  0.74350615     0.02200
C1431       C  0.37373939  0.11066988  0.74212717     0.09000
N1432       N  0.36775866  0.15050628  0.69397105     0.65400
H1433       H  0.41431043  0.18077987  0.68423939     0.18300
N1434       N  0.46900704  0.14938126  0.76020749     0.75900
H1435       H  0.42315094  0.11848235  0.76914640     0.09800
C1436       C  0.36615810  0.08789012  0.72396819     0.03500
C1437       C  0.34602234  0.06778847  0.73304628    -0.05200
C1438       C  0.33405225  0.06929626  0.76040548    -0.23600
C1439       C  0.34105267  0.09272949  0.77812741     0.12800
C1440       C  0.36085824  0.11299197  0.76886240    -0.12700
N1441       N  0.38034170  0.08358777  0.69733432     0.64400
H1442       H  0.34127711  0.04976946  0.71935149     0.12300
N1443       N  0.32826251  0.09635274  0.80552760     0.61100
H1444       H  0.36637322  0.13067897  0.78271550     0.08400
O1445       O  0.48891684  0.13276516  0.75317559    -0.40400
O1446       O  0.46983322  0.16173754  0.78406246    -0.39600
O1447       O  0.34435385  0.15498451  0.70631645    -0.39600
O1448       O  0.36869044  0.15085852  0.66711785    -0.37300
O1449       O  0.30173292  0.10006643  0.80745312    -0.38200
O1450       O  0.34376386  0.09990476  0.82722629    -0.34300
O1451       O  0.40707760  0.08102058  0.69673140    -0.35700
O1452       O  0.36604840  0.07829671  0.67516343    -0.40000
C1453       C  0.35980233  0.90715650  0.72248443    -0.13700
C1454       C  0.37475646  0.89292523  0.74426121     0.16700
C1455       C  0.37169286  0.90239210  0.77261238     0.03000
C1456       C  0.35492514  0.92627554  0.77853588    -0.12200
C1457       C  0.34019472  0.94060379  0.75684463    -0.03300
C1458       C  0.34250686  0.93082430  0.72856821     0.02200
C1459       C  0.39610661  0.87066048  0.73690560     0.09000
N1460       N  0.38501970  0.88753446  0.79569094     0.65400
H1461       H  0.35267041  0.93315053  0.80047620     0.18300
N1462       N  0.32903006  0.94585253  0.70570691     0.75900
H1463       H  0.36257587  0.90067494  0.70050525     0.09800
C1464       C  0.38940657  0.84709801  0.71934588     0.03500
C1465       C  0.41095064  0.82795189  0.71130532    -0.05200
C1466       C  0.43895759  0.83141197  0.72121001    -0.23600
C1467       C  0.44563058  0.85497804  0.73861570     0.12800
C1468       C  0.42431319  0.87431721  0.74620056    -0.12700
N1469       N  0.36075753  0.84189515  0.71029473     0.64400
H1470       H  0.40566187  0.80987537  0.69786018     0.12300
N1471       N  0.47436912  0.86072537  0.74695653     0.61100
H1472       H  0.43006760  0.89292245  0.75869641     0.08400
O1473       O  0.31099132  0.93334085  0.69015119    -0.40400
O1474       O  0.33721230  0.97069289  0.69930351    -0.39600
O1475       O  0.40103669  0.90079343  0.81278007    -0.39600
O1476       O  0.37841040  0.86193137  0.80076909    -0.37300
O1477       O  0.49175109  0.87032804  0.72889959    -0.38200
O1478       O  0.48115272  0.86038362  0.77296015    -0.34300
O1479       O  0.35516329  0.83870470  0.68419355    -0.35700
O1480       O  0.34150424  0.83782087  0.72853217    -0.40000
C1481       C  0.10964258  0.90744854  0.72708288    -0.13700
C1482       C  0.13110456  0.89132614  0.74041447     0.16700
C1483       C  0.12488691  0.86361992  0.75010630     0.03000
C1484       C  0.09724962  0.85308113  0.74779009    -0.12200
C1485       C  0.07555184  0.86929193  0.73507244    -0.03300
C1486       C  0.08196453  0.89654278  0.72414828     0.02200
C1487       C  0.15828552  0.90513570  0.74836836     0.09000
N1488       N  0.14653955  0.84596873  0.76234044     0.65400
H1489       H  0.09284965  0.83172186  0.75553600     0.18300
N1490       N  0.06021324  0.91418253  0.71218034     0.75900
H1491       H  0.11400193  0.92912485  0.72029034     0.09800
C1492       C  0.17642284  0.91747549  0.72803587     0.03500
C1493       C  0.20050699  0.93265783  0.73698019    -0.05200
C1494       C  0.20678398  0.93601266  0.76610360    -0.23600
C1495       C  0.18895051  0.92270236  0.78640166     0.12800
C1496       C  0.16498593  0.90761240  0.77735043    -0.12700
N1497       N  0.17042668  0.91506586  0.69830311     0.64400
H1498       H  0.21382542  0.94264000  0.72102308     0.12300
N1499       N  0.19355971  0.92596784  0.81633656     0.61100
H1500       H  0.15085411  0.89862691  0.79321234     0.08400
O1501       O  0.04385396  0.92798215  0.72839605    -0.40400
O1502       O  0.06003505  0.91922762  0.68579931    -0.39600
O1503       O  0.14420354  0.83735164  0.78767861    -0.39600
O1504       O  0.16602308  0.83606599  0.74676767    -0.37300
O1505       O  0.21006452  0.90917129  0.82935416    -0.38200
O1506       O  0.17971210  0.94444361  0.83009305    -0.34300
O1507       O  0.16190451  0.93660580  0.68459870    -0.35700
O1508       O  0.17769723  0.89283182  0.68503353    -0.40000
C1509       C  0.79584000  0.62986361  0.88761581    -0.13700
C1510       C  0.76733139  0.62627949  0.87978158     0.16700
C1511       C  0.74638451  0.64314734  0.89305544     0.03000
C1512       C  0.75415323  0.66270551  0.91435201    -0.12200
C1513       C  0.78273760  0.66613523  0.92268282    -0.03300
C1514       C  0.80381873  0.64926097  0.90893539     0.02200
C1515       C  0.75955204  0.60254669  0.86025788     0.09000
N1516       N  0.71715824  0.64084382  0.88477721     0.65400
H1517       H  0.73767657  0.67549189  0.92422271     0.18300
N1518       N  0.83316713  0.65004216  0.91734675     0.75900
H1519       H  0.81195011  0.61630656  0.87815076     0.09800
C1520       C  0.77050784  0.60072256  0.83243027     0.03500
C1521       C  0.76326726  0.57752606  0.81501723    -0.05200
C1522       C  0.74541498  0.55556403  0.82490800    -0.23600
C1523       C  0.73547249  0.55688812  0.85333063     0.12800
C1524       C  0.74233383  0.58037741  0.87047112    -0.12700
N1525       N  0.78831874  0.62272192  0.82125604     0.64400
H1526       H  0.77124786  0.57710034  0.79339088     0.12300
N1527       N  0.71890916  0.53435432  0.86541405     0.61100
H1528       H  0.73465274  0.58101032  0.89221340     0.08400
O1529       O  0.85223712  0.65146509  0.89853116    -0.40400
O1530       O  0.84006122  0.64288816  0.94233916    -0.39600
O1531       O  0.69868654  0.63316685  0.90265624    -0.39600
O1532       O  0.70955116  0.64798669  0.85999439    -0.37300
O1533       O  0.73105203  0.51197544  0.87416627    -0.38200
O1534       O  0.69287681  0.53826318  0.87065457    -0.34300
O1535       O  0.81461007  0.61820542  0.81822364    -0.35700
O1536       O  0.77716366  0.64441023  0.80988452    -0.40000
C1537       C  0.75717257  0.57553515  0.10626179    -0.13700
C1538       C  0.76356445  0.60321373  0.11568703     0.16700
C1539       C  0.76258547  0.60913327  0.14512612     0.03000
C1540       C  0.75535945  0.58743521  0.16448570    -0.12200
C1541       C  0.74856309  0.55981416  0.15496394    -0.03300
C1542       C  0.74990703  0.55390146  0.12547831     0.02200
C1543       C  0.77030000  0.62554279  0.09415590     0.09000
N1544       N  0.76893975  0.63703616  0.15563939     0.65400
H1545       H  0.75441259  0.59240297  0.18700363     0.18300
N1546       N  0.74461410  0.52581502  0.11474363     0.75900
H1547       H  0.75774460  0.57067893  0.08369216     0.09800
C1548       C  0.79272183  0.62172679  0.07466275     0.03500
C1549       C  0.79651679  0.64113834  0.05233537    -0.05200
C1550       C  0.77867436  0.66505405  0.04905142    -0.23600
C1551       C  0.75656678  0.66920965  0.06906726     0.12800
C1552       C  0.75247425  0.64940619  0.09116027    -0.12700
N1553       N  0.81222451  0.59847927  0.07766882     0.64400
H1554       H  0.81400727  0.63761624  0.03775078     0.12300
N1555       N  0.73770571  0.69303522  0.06701523     0.61100
H1556       H  0.73483795  0.65236010  0.10570137     0.08400
O1557       O  0.76270381  0.50630745  0.11875023    -0.40400
O1558       O  0.72373921  0.52139752  0.09836529    -0.39600
O1559       O  0.74920915  0.65255994  0.16518796    -0.39600
O1560       O  0.79451149  0.64457772  0.15897485    -0.37300
O1561       O  0.71356308  0.68999829  0.05558064    -0.38200
O1562       O  0.74364157  0.71597904  0.07979289    -0.34300
O1563       O  0.81438048  0.58012407  0.05813085    -0.35700
O1564       O  0.82982834  0.59837936  0.09800721    -0.40000
C1565       C  0.90145355  0.77708396  0.88799804    -0.13700
C1566       C  0.89977803  0.75478388  0.86807855     0.16700
C1567       C  0.88842154  0.72820192  0.87691581     0.03000
C1568       C  0.87834214  0.72507752  0.90475907    -0.12200
C1569       C  0.87809481  0.74804033  0.92375989    -0.03300
C1570       C  0.89029197  0.77419417  0.91535783     0.02200
C1571       C  0.91121946  0.75940142  0.83882277     0.09000
N1572       N  0.88531191  0.70496777  0.85737910     0.65400
H1573       H  0.86821143  0.70460224  0.91103082     0.18300
N1574       N  0.89140117  0.79791587  0.93447885     0.75900
H1575       H  0.91151911  0.79742584  0.88213722     0.09800
C1576       C  0.90535468  0.78472975  0.82345854     0.03500
C1577       C  0.92030664  0.79064278  0.79840957    -0.05200
C1578       C  0.94040287  0.77140301  0.78747192    -0.23600
C1579       C  0.94427062  0.74491840  0.80144136     0.12800
C1580       C  0.93035995  0.73958802  0.82720595    -0.12700
N1581       N  0.88462811  0.80487922  0.83325367     0.64400
H1582       H  0.91653666  0.81086058  0.78770377     0.12300
N1583       N  0.96326024  0.72375067  0.79056714     0.61100
H1584       H  0.93545713  0.72010933  0.83872592     0.08400
O1585       O  0.87681124  0.81995913  0.92941066    -0.40400
O1586       O  0.90963972  0.79830872  0.95424123    -0.39600
O1587       O  0.89576939  0.68087107  0.86331356    -0.39600
O1588       O  0.86989350  0.70772639  0.83551501    -0.37300
O1589       O  0.98699946  0.71961940  0.80249361    -0.38200
O1590       O  0.95463482  0.70653292  0.77176693    -0.34300
O1591       O  0.89075223  0.83108108  0.83467575    -0.35700
O1592       O  0.85954002  0.79683801  0.83844525    -0.40000
C1593       C  0.76915042  0.83282087  0.89210480    -0.13700
C1594       C  0.74844368  0.85151450  0.90251877     0.16700
C1595       C  0.73411094  0.84481654  0.92798105     0.03000
C1596       C  0.74181754  0.82038760  0.94309286    -0.12200
C1597       C  0.76294083  0.80200073  0.93307389    -0.03300
C1598       C  0.77634338  0.80794142  0.90688604     0.02200
C1599       C  0.74363656  0.87913912  0.88821907     0.09000
N1600       N  0.71296019  0.86360287  0.93913754     0.65400
H1601       H  0.73160498  0.81615113  0.96440031     0.18300
N1602       N  0.79815723  0.78955690  0.89620647     0.75900
H1603       H  0.78065077  0.83814059  0.87189185     0.09800
C1604       C  0.76152870  0.90251165  0.89390872     0.03500
C1605       C  0.75755091  0.92819542  0.87928149    -0.05200
C1606       C  0.73578170  0.93115533  0.85885440    -0.23600
C1607       C  0.71749043  0.90765445  0.85362790     0.12800
C1608       C  0.72155453  0.88197267  0.86838931    -0.12700
N1609       N  0.78407814  0.90023342  0.91427322     0.64400
H1610       H  0.77185969  0.94582146  0.88375485     0.12300
N1611       N  0.69564433  0.90896222  0.83243558     0.61100
H1612       H  0.70777169  0.86390619  0.86389452     0.08400
O1613       O  0.79242138  0.76405644  0.88971937    -0.40400
O1614       O  0.82305114  0.79897366  0.89256450    -0.39600
O1615       O  0.68798863  0.86310627  0.92921207    -0.39600
O1616       O  0.71936967  0.88119431  0.95846469    -0.37300
O1617       O  0.70126249  0.90237320  0.80701560    -0.38200
O1618       O  0.67012343  0.91284303  0.83976065    -0.34300
O1619       O  0.80914076  0.89523779  0.90609556    -0.35700
O1620       O  0.77911534  0.90403629  0.94038240    -0.40000
C1621       C  0.10063735  0.77440463  0.36311155    -0.13700
C1622       C  0.11180009  0.74675542  0.36205981     0.16700
C1623       C  0.10140937  0.72733326  0.34169639     0.03000
C1624       C  0.07955065  0.73563086  0.32307072    -0.12200
C1625       C  0.06761629  0.76309898  0.32468523    -0.03300
C1626       C  0.07867994  0.78271251  0.34479198     0.02200
C1627       C  0.13251050  0.73813441  0.38412528     0.09000
N1628       N  0.11300511  0.69922789  0.33968730     0.65400
H1629       H  0.07159641  0.72039444  0.30760052     0.18300
N1630       N  0.06812671  0.81126422  0.34673036     0.75900
H1631       H  0.10856494  0.78944739  0.37880245     0.09800
C1632       C  0.16004696  0.74981360  0.38482688     0.03500
C1633       C  0.17777221  0.74460890  0.40822848    -0.05200
C1634       C  0.16855616  0.72780891  0.43130214    -0.23600
C1635       C  0.14077061  0.71609811  0.43040884     0.12800
C1636       C  0.12319843  0.72117168  0.40680336    -0.12700
N1637       N  0.17029399  0.76685628  0.36177597     0.64400
H1638       H  0.19905838  0.75353127  0.40805991     0.12300
N1639       N  0.12952736  0.70012775  0.45373280     0.61100
H1640       H  0.10167110  0.71280916  0.40671140     0.08400
O1641       O  0.08235192  0.83145673  0.33612595    -0.40400
O1642       O  0.04824987  0.81684553  0.36385847    -0.39600
O1643       O  0.09872747  0.67807823  0.34815659    -0.39600
O1644       O  0.13627715  0.69527329  0.32694377    -0.37300
O1645       O  0.11999856  0.71309929  0.47523857    -0.38200
O1646       O  0.12495552  0.67373329  0.45096768    -0.34300
O1647       O  0.17673047  0.79267956  0.36589592    -0.35700
O1648       O  0.17581284  0.75534074  0.33814119    -0.40000
C1649       C  0.91570844  0.73135865  0.35231568    -0.13700
C1650       C  0.89357988  0.75105729  0.35696412     0.16700
C1651       C  0.89433391  0.77746075  0.34263403     0.03000
C1652       C  0.91728071  0.78408718  0.32499763    -0.12200
C1653       C  0.93973175  0.76473053  0.32060848    -0.03300
C1654       C  0.93870982  0.73793044  0.33436463     0.02200
C1655       C  0.87143164  0.74508723  0.37883916     0.09000
N1656       N  0.87177873  0.79775026  0.34561005     0.65400
H1657       H  0.91737318  0.80471389  0.31451336     0.18300
N1658       N  0.96168306  0.71804683  0.33203133     0.75900
H1659       H  0.91588383  0.71128811  0.36381125     0.09800
C1660       C  0.85563974  0.71950955  0.37876984     0.03500
C1661       C  0.83641889  0.71390175  0.40080723    -0.05200
C1662       C  0.83210267  0.73351648  0.42307787    -0.23600
C1663       C  0.84741528  0.75945162  0.42275644     0.12800
C1664       C  0.86705761  0.76479785  0.40098934    -0.12700
N1665       N  0.85858117  0.69919622  0.35625145     0.64400
H1666       H  0.82465369  0.69397839  0.40038020     0.12300
N1667       N  0.84431549  0.78000343  0.44500965     0.61100
H1668       H  0.87948778  0.78429877  0.40178003     0.08400
O1669       O  0.95724033  0.69351130  0.32186497    -0.40400
O1670       O  0.98526367  0.72348049  0.34378205    -0.39600
O1671       O  0.87708072  0.82261514  0.35450989    -0.39600
O1672       O  0.84728238  0.79194664  0.33617159    -0.37300
O1673       O  0.86175849  0.78029376  0.46547205    -0.38200
O1674       O  0.82706167  0.80041457  0.44198589    -0.34300
O1675       O  0.86752747  0.67437076  0.36161042    -0.35700
O1676       O  0.84864153  0.70477001  0.33189864    -0.40000
C1677       C  0.87611025  0.73474840  0.10961009    -0.13700
C1678       C  0.90412363  0.74494855  0.10957106     0.16700
C1679       C  0.91768748  0.75086887  0.08336532     0.03000
C1680       C  0.90232294  0.74822118  0.05789509    -0.12200
C1681       C  0.87418135  0.73846551  0.05798763    -0.03300
C1682       C  0.86102953  0.73146860  0.08406371     0.02200
C1683       C  0.91810162  0.75193005  0.13697623     0.09000
N1684       N  0.94714785  0.75891762  0.08232954     0.65400
H1685       H  0.91262677  0.75301867  0.03783154     0.18300
N1686       N  0.83179119  0.72296741  0.08507418     0.75900
H1687       H  0.86550866  0.73053459  0.12964627     0.09800
C1688       C  0.92646864  0.78018437  0.14293421     0.03500
C1689       C  0.94354310  0.78569299  0.16662221    -0.05200
C1690       C  0.95172463  0.76378212  0.18533268    -0.23600
C1691       C  0.94158566  0.73586980  0.18057711     0.12800
C1692       C  0.92489378  0.73012044  0.15636557    -0.12700
N1693       N  0.91765377  0.80347016  0.12517376     0.64400
H1694       H  0.95043657  0.80744488  0.17051872     0.12300
N1695       N  0.94980270  0.71288144  0.19877912     0.61100
H1696       H  0.91835859  0.70836925  0.15196655     0.08400
O1697       O  0.82518395  0.69897900  0.09531599    -0.40400
O1698       O  0.81252560  0.74111724  0.08030606    -0.39600
O1699       O  0.96544612  0.74473742  0.09605879    -0.39600
O1700       O  0.95536829  0.77785839  0.06509854    -0.37300
O1701       O  0.93173135  0.70177171  0.21521559    -0.38200
O1702       O  0.97367425  0.70103453  0.19542873    -0.34300
O1703       O  0.89149421  0.80782665  0.12080520    -0.35700
O1704       O  0.93556316  0.82182289  0.11707869    -0.40000
C1705       C  0.90254621  0.25842557  0.33826056    -0.13700
C1706       C  0.89844468  0.24084495  0.36204702     0.16700
C1707       C  0.91528278  0.21624715  0.36528664     0.03000
C1708       C  0.93714138  0.21067178  0.34595452    -0.12200
C1709       C  0.94241900  0.22902970  0.32285417    -0.03300
C1710       C  0.92405435  0.25254879  0.31850176     0.02200
C1711       C  0.87768697  0.24919410  0.38416953     0.09000
N1712       N  0.91108174  0.19728040  0.38872020     0.65400
H1713       H  0.95028991  0.19195562  0.34933171     0.18300
N1714       N  0.92690166  0.27071461  0.29428474     0.75900
H1715       H  0.88911698  0.27699659  0.33517903     0.09800
C1716       C  0.88178080  0.27426655  0.40012423     0.03500
C1717       C  0.86312347  0.28098293  0.42220644    -0.05200
C1718       C  0.83981025  0.26332095  0.42867106    -0.23600
C1719       C  0.83509113  0.23867681  0.41183830     0.12800
C1720       C  0.85421596  0.23168744  0.39003836    -0.12700
N1721       N  0.90534140  0.29273434  0.39461864     0.64400
H1722       H  0.86696800  0.30031488  0.43431130     0.12300
N1723       N  0.81120124  0.22043625  0.41662096     0.61100
H1724       H  0.85069290  0.21253379  0.37755333     0.08400
O1725       O  0.94000745  0.29411066  0.29659651    -0.40400
O1726       O  0.91196610  0.26594255  0.27243240    -0.39600
O1727       O  0.89944839  0.17333897  0.38466459    -0.39600
O1728       O  0.92194772  0.20296340  0.41264923    -0.37300
O1729       O  0.81456056  0.19715794  0.42970183    -0.38200
O1730       O  0.78803758  0.22526904  0.40383884    -0.34300
O1731       O  0.90153200  0.31562614  0.38098659    -0.35700
O1732       O  0.92905027  0.28800135  0.40636925    -0.40000
C1733       C  0.09134900  0.26451524  0.35817329    -0.13700
C1734       C  0.11725808  0.24958240  0.35759223     0.16700
C1735       C  0.12042376  0.22640802  0.33880657     0.03000
C1736       C  0.09745965  0.21786801  0.32173940    -0.12200
C1737       C  0.07131741  0.23243041  0.32260907    -0.03300
C1738       C  0.06833914  0.25604381  0.34102856     0.02200
C1739       C  0.13951720  0.25648872  0.37896948     0.09000
N1740       N  0.14704758  0.21179038  0.33648629     0.65400
H1741       H  0.10020660  0.19993686  0.30739696     0.18300
N1742       N  0.04151080  0.27010233  0.34426413     0.75900
H1743       H  0.08854014  0.28196000  0.37307977     0.09800
C1744       C  0.15277745  0.28340204  0.37954791     0.03500
C1745       C  0.17064791  0.29066560  0.40237687    -0.05200
C1746       C  0.17601076  0.27133406  0.42472132    -0.23600
C1747       C  0.16331925  0.24394287  0.42352603     0.12800
C1748       C  0.14536447  0.23681019  0.40070966    -0.12700
N1749       N  0.14861310  0.30331939  0.35681257     0.64400
H1750       H  0.18059528  0.31155207  0.40244712     0.12300
N1751       N  0.16704674  0.22369193  0.44600400     0.61100
H1752       H  0.13490179  0.21617286  0.40060126     0.08400
O1753       O  0.03925321  0.29634606  0.33868516    -0.40400
O1754       O  0.02100544  0.25714656  0.35581048    -0.39600
O1755       O  0.14825072  0.18514815  0.34022444    -0.39600
O1756       O  0.16876243  0.22500426  0.32779606    -0.37300
O1757       O  0.15355118  0.22671092  0.46899402    -0.38200
O1758       O  0.18038307  0.20078963  0.44139998    -0.34300
O1759       O  0.14074219  0.32851145  0.36209875    -0.35700
O1760       O  0.15512595  0.29646761  0.33167209    -0.40000
C1761       C  0.91036962  0.24105174  0.08801681    -0.13700
C1762       C  0.89816831  0.25249567  0.11271844     0.16700
C1763       C  0.87542836  0.27196335  0.11005426     0.03000
C1764       C  0.86465703  0.27873600  0.08296565    -0.12200
C1765       C  0.87597865  0.26611883  0.05830611    -0.03300
C1766       C  0.89961798  0.24769583  0.06100686     0.02200
C1767       C  0.91078197  0.24486086  0.14075525     0.09000
N1768       N  0.86204569  0.28372536  0.13469690     0.65400
H1769       H  0.84627142  0.29263450  0.08137664     0.18300
N1770       N  0.91333167  0.23604745  0.03646939     0.75900
H1771       H  0.92869245  0.22707561  0.08970976     0.09800
C1772       C  0.91280267  0.21619905  0.14947383     0.03500
C1773       C  0.92905058  0.20899970  0.17342044    -0.05200
C1774       C  0.94346226  0.22996354  0.18941635    -0.23600
C1775       C  0.93934801  0.25911884  0.18202611     0.12800
C1776       C  0.92348717  0.26608237  0.15753746    -0.12700
N1777       N  0.89874516  0.19408211  0.13388177     0.64400
H1778       H  0.93115491  0.18660560  0.17883624     0.12300
N1779       N  0.95126033  0.28189326  0.19868344     0.61100
H1780       H  0.92160925  0.28823820  0.15114410     0.08400
O1781       O  0.92713184  0.25225554  0.02007858    -0.40400
O1782       O  0.91498236  0.20934773  0.03334764    -0.39600
O1783       O  0.86276902  0.31030153  0.13899066    -0.39600
O1784       O  0.84617513  0.26821330  0.14982825    -0.37300
O1785       O  0.96175952  0.30344818  0.18647658    -0.38200
O1786       O  0.94651369  0.28301821  0.22508185    -0.34300
O1787       O  0.91298785  0.17768395  0.11807828    -0.35700
O1788       O  0.87322056  0.18801843  0.13955157    -0.40000
C1789       C  0.89543402  0.23757258  0.64433411    -0.13700
C1790       C  0.90165749  0.24122549  0.61542211     0.16700
C1791       C  0.92991202  0.23807257  0.60593836     0.03000
C1792       C  0.95146936  0.23118762  0.62544663    -0.12200
C1793       C  0.94540191  0.22822720  0.65453234    -0.03300
C1794       C  0.91700344  0.23094805  0.66388708     0.02200
C1795       C  0.87865551  0.24950757  0.59555259     0.09000
N1796       N  0.93719558  0.24338392  0.57687925     0.65400
H1797       H  0.97321702  0.22930033  0.61802331     0.18300
N1798       N  0.90962280  0.22581768  0.69294955     0.75900
H1799       H  0.87368568  0.23970351  0.65168890     0.09800
C1800       C  0.86694793  0.23002911  0.57593101     0.03500
C1801       C  0.84669465  0.23938079  0.55602105    -0.05200
C1802       C  0.83756176  0.26799113  0.55549625    -0.23600
C1803       C  0.84873009  0.28714946  0.57607726     0.12800
C1804       C  0.86916320  0.27777214  0.59566120    -0.12700
N1805       N  0.87527354  0.20068404  0.57618685     0.64400
H1806       H  0.83841612  0.22421674  0.54066633     0.12300
N1807       N  0.83965889  0.31623584  0.57745883     0.61100
H1808       H  0.87796197  0.29278442  0.61089952     0.08400
O1809       O  0.90825801  0.20054770  0.70214718    -0.40400
O1810       O  0.90129808  0.24615457  0.70843166    -0.39600
O1811       O  0.93741854  0.26866109  0.56760122    -0.39600
O1812       O  0.94733022  0.22356793  0.56180960    -0.37300
O1813       O  0.85618443  0.33587397  0.56944866    -0.38200
O1814       O  0.81706035  0.32250053  0.59048349    -0.34300
O1815       O  0.86588236  0.18430552  0.59530569    -0.35700
O1816       O  0.88831343  0.19027105  0.55516443    -0.40000
C1817       C  0.12174908  0.26560638  0.57209061    -0.13700
C1818       C  0.13297438  0.25830843  0.59881545     0.16700
C1819       C  0.16273990  0.25621070  0.60210436     0.03000
C1820       C  0.18063217  0.26121627  0.57877551    -0.12200
C1821       C  0.16945920  0.26909630  0.55211607    -0.03300
C1822       C  0.13960120  0.27128792  0.54892600     0.02200
C1823       C  0.11319063  0.25039761  0.62217553     0.09000
N1824       N  0.17508496  0.25002418  0.62927344     0.65400
H1825       H  0.20348504  0.25994131  0.58182972     0.18300
N1826       N  0.12696362  0.27819833  0.52208254     0.75900
H1827       H  0.09887659  0.26650553  0.56906049     0.09800
C1828       C  0.09179144  0.26918863  0.63165447     0.03500
C1829       C  0.07150304  0.25982768  0.65141809    -0.05200
C1830       C  0.07191702  0.23175519  0.66205703    -0.23600
C1831       C  0.09384694  0.21312887  0.65283152     0.12800
C1832       C  0.11413238  0.22262790  0.63320186    -0.12700
N1833       N  0.09041610  0.29785990  0.62134059     0.64400
H1834       H  0.05502634  0.27456925  0.65805735     0.12300
N1835       N  0.09541650  0.18419457  0.66238458     0.61100
H1836       H  0.13018160  0.20780341  0.62571422     0.08400
O1837       O  0.12232934  0.30398170  0.51585611    -0.40400
O1838       O  0.11517820  0.25878653  0.50763568    -0.39600
O1839       O  0.19044745  0.22816313  0.63244743    -0.39600
O1840       O  0.17336029  0.26807449  0.64913827    -0.37300
O1841       O  0.08397804  0.16466457  0.64780032    -0.38200
O1842       O  0.11181909  0.17770353  0.68268620    -0.34300
O1843       O  0.06940505  0.30584063  0.60656708    -0.35700
O1844       O  0.10846305  0.31599295  0.62968382    -0.40000
C1845       C  0.89249112  0.11253402  0.70565997    -0.13700
C1846       C  0.88305273  0.10613976  0.73321178     0.16700
C1847       C  0.90048367  0.11287731  0.75667257     0.03000
C1848       C  0.92730436  0.12496613  0.75232585    -0.12200
C1849       C  0.93729049  0.13092743  0.72476960    -0.03300
C1850       C  0.91944586  0.12475518  0.70120059     0.02200
C1851       C  0.85802242  0.08741996  0.73720137     0.09000
N1852       N  0.89118702  0.10723995  0.78509863     0.65400
H1853       H  0.94015105  0.13023453  0.77080373     0.18300
N1854       N  0.92894033  0.12922208  0.67263745     0.75900
H1855       H  0.87952024  0.10658563  0.68747526     0.09800
C1856       C  0.82977536  0.09713154  0.73443841     0.03500
C1857       C  0.80702339  0.07854908  0.74049885    -0.05200
C1858       C  0.81222012  0.05045948  0.74971493    -0.23600
C1859       C  0.84073311  0.04062098  0.75108283     0.12800
C1860       C  0.86310433  0.05907309  0.74483212    -0.12700
N1861       N  0.82400897  0.12611966  0.72704600     0.64400
H1862       H  0.78539433  0.08652269  0.73939570     0.12300
N1863       N  0.84749798  0.01191946  0.75899765     0.61100
H1864       H  0.88480474  0.05132001  0.74650089     0.08400
O1865       O  0.91484910  0.14506912  0.65607315    -0.40400
O1866       O  0.94910659  0.11439509  0.66288211    -0.39600
O1867       O  0.90468973  0.08981603  0.80052929    -0.39600
O1868       O  0.87100227  0.12150327  0.79560440    -0.37300
O1869       O  0.85155892  0.99352128  0.73983358    -0.38200
O1870       O  0.85554228  0.00667848  0.78411296    -0.34300
O1871       O  0.81484732  0.13212808  0.70249957    -0.35700
O1872       O  0.82506779  0.14525592  0.74592326    -0.40000
C1873       C  0.11869379  0.12348320  0.76231493    -0.13700
C1874       C  0.12507095  0.10239621  0.74218982     0.16700
C1875       C  0.10504638  0.09634789  0.72054001     0.03000
C1876       C  0.07931685  0.11144291  0.71936552    -0.12200
C1877       C  0.07294031  0.13274831  0.73941734    -0.03300
C1878       C  0.09309257  0.13864978  0.76116369     0.02200
C1879       C  0.15114022  0.08485147  0.74618655     0.09000
N1880       N  0.11073872  0.07522140  0.69933129     0.65400
H1881       H  0.06439836  0.10662770  0.70237100     0.18300
N1882       N  0.08823648  0.16021391  0.78211809     0.75900
H1883       H  0.13343694  0.12777481  0.77960934     0.09800
C1884       C  0.17834476  0.09729051  0.74994065     0.03500
C1885       C  0.20179924  0.08002216  0.75685907    -0.05200
C1886       C  0.19852354  0.05051439  0.76041863    -0.23600
C1887       C  0.17141210  0.03812098  0.75633286     0.12800
C1888       C  0.14813657  0.05526557  0.74931993    -0.12700
N1889       N  0.18236386  0.12741815  0.74716573     0.64400
H1890       H  0.22247261  0.08979523  0.76021064     0.12300
N1891       N  0.16721399  0.00801817  0.75906945     0.61100
H1892       H  0.12733441  0.04542987  0.74721288     0.08400
O1893       O  0.10202101  0.18328057  0.78092291    -0.40400
O1894       O  0.07449287  0.15419787  0.80436827    -0.39600
O1895       O  0.09439922  0.05399763  0.69666259    -0.39600
O1896       O  0.12996755  0.07950328  0.68112900    -0.37300
O1897       O  0.15739847  0.99794050  0.78193940    -0.38200
O1898       O  0.16841225  0.99240486  0.73722739    -0.34300
O1899       O  0.19128538  0.14182089  0.76807619    -0.35700
O1900       O  0.17948556  0.13920808  0.72318330    -0.40000
C1901       C  0.86729764  0.23878589  0.87175237    -0.13700
C1902       C  0.89416797  0.25072827  0.86704110     0.16700
C1903       C  0.90732634  0.26678157  0.88879992     0.03000
C1904       C  0.89397534  0.26942920  0.91533403    -0.12200
C1905       C  0.86802013  0.25559941  0.92063224    -0.03300
C1906       C  0.85427932  0.24079145  0.89824523     0.02200
C1907       C  0.90871835  0.24425127  0.83996183     0.09000
N1908       N  0.93497428  0.27885464  0.88485476     0.65400
H1909       H  0.90461288  0.28107244  0.93224373     0.18300
N1910       N  0.82687927  0.22797921  0.90191021     0.75900
H1911       H  0.85660205  0.22719507  0.85482618     0.09800
C1912       C  0.91231741  0.21567616  0.83142164     0.03500
C1913       C  0.92569663  0.20959201  0.80577904    -0.05200
C1914       C  0.93696238  0.23144446  0.78868599    -0.23600
C1915       C  0.93196202  0.26018096  0.79639429     0.12800
C1916       C  0.91800369  0.26632897  0.82205700    -0.12700
N1917       N  0.90440812  0.19250520  0.84963039     0.64400
H1918       H  0.92922596  0.18734024  0.80050043     0.12300
N1919       N  0.94063545  0.28319715  0.77837446     0.61100
H1920       H  0.91427381  0.28837780  0.82798215     0.08400
O1921       O  0.80491378  0.24345705  0.90235656    -0.40400
O1922       O  0.82428867  0.20119706  0.90065810    -0.39600
O1923       O  0.93808368  0.30560119  0.88451746    -0.39600
O1924       O  0.95658764  0.26288143  0.88444512    -0.37300
O1925       O  0.95690370  0.30242413  0.78786786    -0.38200
O1926       O  0.92917839  0.28625796  0.75423636    -0.34300
O1927       O  0.88667011  0.17413345  0.84113111    -0.35700
O1928       O  0.91754682  0.18858590  0.87277317    -0.40000
C1929       C  0.26116324  0.65142884  0.09324866    -0.13700
C1930       C  0.24756358  0.62483124  0.09319712     0.16700
C1931       C  0.22733794  0.61855044  0.07206146     0.03000
C1932       C  0.22134373  0.63867843  0.05095965    -0.12200
C1933       C  0.23528832  0.66527952  0.05044585    -0.03300
C1934       C  0.25511417  0.67174611  0.07228290     0.02200
C1935       C  0.25550787  0.60349777  0.11483614     0.09000
N1936       N  0.21359354  0.59135377  0.07114733     0.65400
H1937       H  0.20592082  0.63316978  0.03465433     0.18300
N1938       N  0.26927559  0.69872433  0.07361487     0.75900
H1939       H  0.27662317  0.65641068  0.10970935     0.09800
C1940       C  0.28298793  0.59173243  0.11499885     0.03500
C1941       C  0.29059203  0.57227606  0.13609775    -0.05200
C1942       C  0.27125500  0.56416939  0.15739835    -0.23600
C1943       C  0.24359339  0.57594318  0.15716415     0.12800
C1944       C  0.23593515  0.59549627  0.13587636    -0.12700
N1945       N  0.30311486  0.59876375  0.09331318     0.64400
H1946       H  0.31160406  0.56277931  0.13520777     0.12300
N1947       N  0.22342361  0.56898247  0.17877580     0.61100
H1948       H  0.21479745  0.60478407  0.13597243     0.08400
O1949       O  0.29493411  0.70067086  0.06600767    -0.40400
O1950       O  0.25772463  0.71930337  0.08650287    -0.39600
O1951       O  0.18757947  0.58930600  0.07740912    -0.39600
O1952       O  0.22650531  0.57008844  0.06094638    -0.37300
O1953       O  0.22202445  0.58408154  0.20097249    -0.38200
O1954       O  0.20435903  0.55065438  0.17384089    -0.34300
O1955       O  0.32583620  0.61162255  0.09976071    -0.35700
O1956       O  0.29964713  0.58943941  0.06833798    -0.40000
C1957       C  0.26697776  0.62964280  0.90822686    -0.13700
C1958       C  0.25646124  0.63296927  0.88034579     0.16700
C1959       C  0.23706450  0.65533894  0.87472218     0.03000
C1960       C  0.22779942  0.67298922  0.89697946    -0.12200
C1961       C  0.23829033  0.66951404  0.92474137    -0.03300
C1962       C  0.25825296  0.64774355  0.93029393     0.02200
C1963       C  0.26360083  0.61107322  0.85837437     0.09000
N1964       N  0.22710523  0.66077128  0.84642098     0.65400
H1965       H  0.21274961  0.68996053  0.89243221     0.18300
N1966       N  0.26816805  0.64238751  0.95862343     0.75900
H1967       H  0.28109211  0.61202881  0.91324477     0.09800
C1968       C  0.29188985  0.60180938  0.85416142     0.03500
C1969       C  0.29732620  0.57820837  0.83669846    -0.05200
C1970       C  0.27521209  0.56395300  0.82243303    -0.23600
C1971       C  0.24708061  0.57371541  0.82573818     0.12800
C1972       C  0.24148846  0.59697136  0.84373297    -0.12700
N1973       N  0.31534186  0.61639584  0.86715772     0.64400
H1974       H  0.31915772  0.57121535  0.83386573     0.12300
N1975       N  0.22382550  0.55884443  0.81282553     0.61100
H1976       H  0.21954763  0.60313296  0.84735605     0.08400
O1977       O  0.29413823  0.64571009  0.96467663    -0.40400
O1978       O  0.25166284  0.63135801  0.97669892    -0.39600
O1979       O  0.20074504  0.66230797  0.84141864    -0.39600
O1980       O  0.24460879  0.66707763  0.82708540    -0.37300
O1981       O  0.21624290  0.53488900  0.82247106    -0.38200
O1982       O  0.20878522  0.57106417  0.79417291    -0.34300
O1983       O  0.33301867  0.60275208  0.88217432    -0.35700
O1984       O  0.32018704  0.64216494  0.86103373    -0.40000
C1985       C  0.11357000  0.76990783  0.88242672    -0.13700
C1986       C  0.10351574  0.74464724  0.87005112     0.16700
C1987       C  0.10882544  0.71842009  0.88355823     0.03000
C1988       C  0.12413208  0.71778555  0.90924376    -0.12200
C1989       C  0.13442428  0.74311011  0.92172321    -0.03300
C1990       C  0.12868723  0.76947755  0.90813635     0.02200
C1991       C  0.08520382  0.74679350  0.84451590     0.09000
N1992       N  0.09874682  0.69235169  0.87140620     0.65400
H1993       H  0.12849419  0.69733896  0.91911336     0.18300
N1994       N  0.13716906  0.79607663  0.92058651     0.75900
H1995       H  0.10887105  0.79022718  0.87241683     0.09800
C1996       C  0.05676039  0.75545284  0.84740371     0.03500
C1997       C  0.04091765  0.76250776  0.82331065    -0.05200
C1998       C  0.05290396  0.76144673  0.79590980    -0.23600
C1999       C  0.08089806  0.75096975  0.79280614     0.12800
C2000       C  0.09686857  0.74376079  0.81717608    -0.12700
N2001       N  0.04415151  0.75864269  0.87487909     0.64400
H2002       H  0.01924435  0.76987937  0.82625427     0.12300
N2003       N  0.09407094  0.74953677  0.76548032     0.61100
H2004       H  0.11886676  0.73721787  0.81485691     0.08400
O2005       O  0.12759873  0.80336844  0.94459775    -0.40400
O2006       O  0.15205864  0.81345265  0.90649737    -0.39600
O2007       O  0.11306942  0.68003791  0.85233315    -0.39600
O2008       O  0.07713031  0.68018684  0.88167484    -0.37300
O2009       O  0.10566529  0.77149742  0.75515338    -0.38200
O2010       O  0.09814222  0.72557958  0.75392141    -0.34300
O2011       O  0.04291760  0.78303839  0.88619318    -0.35700
O2012       O  0.02989944  0.73837935  0.88531167    -0.40000
C2013       C  0.10027194  0.78112809  0.14859835    -0.13700
C2014       C  0.09770816  0.75331125  0.13785245     0.16700
C2015       C  0.08346060  0.73258436  0.15419877     0.03000
C2016       C  0.07013527  0.74044919  0.17968104    -0.12200
C2017       C  0.07068296  0.76886728  0.18942764    -0.03300
C2018       C  0.08731729  0.78900650  0.17427354     0.02200
C2019       C  0.11003839  0.74640169  0.10956590     0.09000
N2020       N  0.08072811  0.70387769  0.14425563     0.65400
H2021       H  0.05783813  0.72447297  0.19093454     0.18300
N2022       N  0.09104237  0.81758428  0.18439527     0.75900
H2023       H  0.11235079  0.79692157  0.13683886     0.09800
C2024       C  0.10200595  0.76182120  0.08504551     0.03500
C2025       C  0.11527885  0.75628774  0.05897221    -0.05200
C2026       C  0.13649165  0.73531292  0.05657738    -0.23600
C2027       C  0.14442614  0.71974946  0.08120524     0.12800
C2028       C  0.13108183  0.72531844  0.10728945    -0.12700
N2029       N  0.08014410  0.78300997  0.08628350     0.64400
H2030       H  0.10889219  0.76855136  0.04045399     0.12300
N2031       N  0.16757939  0.69997451  0.08070157     0.61100
H2032       H  0.13800746  0.71387738  0.12613899     0.08400
O2033       O  0.08321190  0.83842722  0.16926886    -0.40400
O2034       O  0.10527515  0.82206402  0.20677504    -0.39600
O2035       O  0.09269709  0.68382163  0.15762559    -0.39600
O2036       O  0.06399589  0.69822574  0.12396574    -0.37300
O2037       O  0.19275013  0.70909216  0.08298048    -0.38200
O2038       O  0.16276958  0.67356718  0.08281685    -0.34300
O2039       O  0.08591548  0.80874069  0.08084561    -0.35700
O2040       O  0.05462395  0.77564221  0.09022664    -0.40000
C2041       C  0.26747230  0.82804065  0.89752889    -0.13700
C2042       C  0.27432873  0.85314899  0.91257637     0.16700
C2043       C  0.27185624  0.85321896  0.94257914     0.03000
C2044       C  0.26004982  0.82965438  0.95642080    -0.12200
C2045       C  0.25187629  0.80523612  0.94127037    -0.03300
C2046       C  0.25669543  0.80395986  0.91174792     0.02200
C2047       C  0.27886508  0.88043522  0.89687466     0.09000
N2048       N  0.28072508  0.87734651  0.95917211     0.65400
H2049       H  0.25720023  0.83040036  0.97934378     0.18300
N2050       N  0.24861027  0.77932758  0.89571921     0.75900
H2051       H  0.26879385  0.82767800  0.87448783     0.09800
C2052       C  0.29849086  0.88329283  0.87433599     0.03500
C2053       C  0.30029672  0.90920791  0.85933016    -0.05200
C2054       C  0.28296156  0.93262335  0.86648210    -0.23600
C2055       C  0.26362965  0.92968176  0.88932629     0.12800
C2056       C  0.26149612  0.90376984  0.90378497    -0.12700
N2057       N  0.31678120  0.86021167  0.86654096     0.64400
H2058       H  0.31511336  0.91085403  0.84173447     0.12300
N2059       N  0.24587877  0.95278068  0.89823324     0.61100
H2060       H  0.24575194  0.90182197  0.92052597     0.08400
O2061       O  0.22315654  0.77627481  0.88763812    -0.40400
O2062       O  0.26734714  0.76190401  0.88752618    -0.39600
O2063       O  0.26481609  0.88708072  0.97849013    -0.39600
O2064       O  0.30543702  0.88744785  0.95615560    -0.37300
O2065       O  0.21958664  0.95229949  0.89269362    -0.38200
O2066       O  0.25564741  0.97147189  0.91495784    -0.34300
O2067       O  0.31565305  0.85001987  0.84169042    -0.35700
O2068       O  0.33633803  0.85238100  0.88326094    -0.40000
C2069       C  0.26475746  0.34935705  0.89058658    -0.13700
C2070       C  0.24439314  0.36935855  0.88164647     0.16700
C2071       C  0.21632546  0.36717039  0.89173014     0.03000
C2072       C  0.20960260  0.34637344  0.91196448    -0.12200
C2073       C  0.23056399  0.32783060  0.92285971    -0.03300
C2074       C  0.25820615  0.32881510  0.91116270     0.02200
C2075       C  0.25326213  0.39303259  0.86281620     0.09000
N2076       N  0.19485451  0.38695200  0.88292169     0.65400
H2077       H  0.18811374  0.34584454  0.92029777     0.18300
N2078       N  0.27974344  0.30893739  0.91945397     0.75900
H2079       H  0.28618140  0.35024004  0.88209396     0.09800
C2080       C  0.27587523  0.41110706  0.87089239     0.03500
C2081       C  0.28535189  0.43211081  0.85215343    -0.05200
C2082       C  0.27219845  0.43609250  0.82564110    -0.23600
C2083       C  0.24934351  0.41833080  0.81759741     0.12800
C2084       C  0.24003379  0.39692596  0.83624177    -0.12700
N2085       N  0.28894111  0.40879227  0.89837271     0.64400
H2086       H  0.30274668  0.44589576  0.85866007     0.12300
N2087       N  0.23691791  0.42037551  0.78985958     0.61100
H2088       H  0.22305616  0.38270948  0.82960349     0.08400
O2089       O  0.29530378  0.31441831  0.94069839    -0.40400
O2090       O  0.28765089  0.29019368  0.90190155    -0.39600
O2091       O  0.17298606  0.37811558  0.86998799    -0.39600
O2092       O  0.19645786  0.41279541  0.89033106    -0.37300
O2093       O  0.25044195  0.41125202  0.76854714    -0.38200
O2094       O  0.21114700  0.42744445  0.78713902    -0.34300
O2095       O  0.31546085  0.40504012  0.90046244    -0.35700
O2096       O  0.27436525  0.41277059  0.92055019    -0.40000
C2097       C  0.26546311  0.35507719  0.08854841    -0.13700
C2098       C  0.24484147  0.37563577  0.09515966     0.16700
C2099       C  0.21967554  0.37689923  0.07898052     0.03000
C2100       C  0.21548927  0.35782736  0.05642353    -0.12200
C2101       C  0.23599883  0.33704200  0.04962593    -0.03300
C2102       C  0.26135007  0.33589724  0.06592433     0.02200
C2103       C  0.25155841  0.39816009  0.11619434     0.09000
N2104       N  0.19832874  0.39773011  0.08506855     0.65400
H2105       H  0.19575676  0.35903993  0.04447373     0.18300
N2106       N  0.28377573  0.31658265  0.05879282     0.75900
H2107       H  0.28531288  0.35462779  0.10036853     0.09800
C2108       C  0.24496073  0.39534621  0.14525623     0.03500
C2109       C  0.25205169  0.41732070  0.16437268    -0.05200
C2110       C  0.26605578  0.44213390  0.15495065    -0.23600
C2111       C  0.27232717  0.44479929  0.12551735     0.12800
C2112       C  0.26499873  0.42294564  0.10661670    -0.12700
N2113       N  0.23166706  0.37002390  0.15567524     0.64400
H2114       H  0.24722309  0.41460245  0.18675674     0.12300
N2115       N  0.28615301  0.46953712  0.11430366     0.61100
H2116       H  0.26999915  0.42527364  0.08420818     0.08400
O2117       O  0.29092478  0.29722984  0.07606286    -0.40400
O2118       O  0.29885780  0.32123116  0.03709040    -0.39600
O2119       O  0.19487392  0.41869271  0.06856561    -0.39600
O2120       O  0.18052953  0.39316905  0.10460522    -0.37300
O2121       O  0.31247443  0.46881448  0.10907831    -0.38200
O2122       O  0.27147595  0.49042579  0.10579312    -0.34300
O2123       O  0.24674664  0.35016651  0.16577974    -0.35700
O2124       O  0.20497475  0.36910099  0.15833494    -0.40000
C2125       C  0.13432997  0.27365296  0.11326291    -0.13700
C2126       C  0.11243864  0.25352483  0.11540644     0.16700
C2127       C  0.10346008  0.23863796  0.09098219     0.03000
C2128       C  0.11664090  0.24374834  0.06485509    -0.12200
C2129       C  0.13872870  0.26380472  0.06245835    -0.03300
C2130       C  0.14754728  0.27892451  0.08705902     0.02200
C2131       C  0.09716749  0.24992581  0.14254649     0.09000
N2132       N  0.08085243  0.21829130  0.09248527     0.65400
H2133       H  0.10955101  0.23186080  0.04634289     0.18300
N2134       N  0.17027246  0.29916213  0.08600743     0.75900
H2135       H  0.14106447  0.28541557  0.13198848     0.09800
C2136       C  0.10759079  0.23219951  0.16446979     0.03500
C2137       C  0.09056821  0.22680920  0.18840733    -0.05200
C2138       C  0.06337716  0.23898513  0.19059989    -0.23600
C2139       C  0.05384172  0.25793415  0.16941461     0.12800
C2140       C  0.07075131  0.26331374  0.14563242    -0.12700
N2141       N  0.13456711  0.21833002  0.16190031     0.64400
H2142       H  0.09783572  0.21177502  0.20440164     0.12300
N2143       N  0.02637267  0.27079303  0.17117864     0.61100
H2144       H  0.06276009  0.27716662  0.12893017     0.08400
O2145       O  0.16482543  0.32545701  0.08791655    -0.40400
O2146       O  0.19568657  0.29069576  0.08808901    -0.39600
O2147       O  0.05652278  0.22463215  0.08297864    -0.39600
O2148       O  0.08599956  0.19302189  0.10021184    -0.37300
O2149       O  0.02409952  0.29585882  0.18071030    -0.38200
O2150       O  0.00554146  0.25938084  0.15856005    -0.34300
O2151       O  0.15469882  0.22501087  0.17844042    -0.35700
O2152       O  0.13734792  0.19733274  0.14531299    -0.40000
C2153       C  0.05715176  0.25609149  0.84938726    -0.13700
C2154       C  0.08687960  0.25559240  0.84696348     0.16700
C2155       C  0.09909730  0.25096783  0.81990811     0.03000
C2156       C  0.08157531  0.24555882  0.79618050    -0.12200
C2157       C  0.05191237  0.24414233  0.79908789    -0.03300
C2158       C  0.03968671  0.25034065  0.82586066     0.02200
C2159       C  0.10449396  0.25653892  0.87338849     0.09000
N2160       N  0.12929480  0.25110591  0.81642048     0.65400
H2161       H  0.09125518  0.24103513  0.77574918     0.18300
N2162       N  0.00948232  0.25054269  0.82955406     0.75900
H2163       H  0.04741576  0.25960832  0.86999529     0.09800
C2164       C  0.10299084  0.27961040  0.89259390     0.03500
C2165       C  0.11763648  0.27836142  0.91868149    -0.05200
C2166       C  0.13410697  0.25439767  0.92625657    -0.23600
C2167       C  0.13521243  0.23111920  0.90699090     0.12800
C2168       C  0.12061579  0.23249565  0.88092533    -0.12700
N2169       N  0.08732042  0.30480005  0.88549508     0.64400
H2170       H  0.11663348  0.29666247  0.93275874     0.12300
N2171       N  0.15049715  0.20560120  0.91371448     0.61100
H2172       H  0.12119170  0.21420864  0.86678352     0.08400
O2173       O  0.99705302  0.22849240  0.83865646    -0.40400
O2174       O  0.99633510  0.27401038  0.82922041    -0.39600
O2175       O  0.14219093  0.22834744  0.81015230    -0.39600
O2176       O  0.14271803  0.27442656  0.81694882    -0.37300
O2177       O  0.13941512  0.18722253  0.92989696    -0.38200
O2178       O  0.17307229  0.19964703  0.90049460    -0.34300
O2179       O  0.06702795  0.31285014  0.90109459    -0.35700
O2180       O  0.09562708  0.32059105  0.86540357    -0.40000
C2181       C  0.29437927  0.09978700  0.89876485    -0.13700
C2182       C  0.27037938  0.11736126  0.89702150     0.16700
C2183       C  0.24695237  0.10896323  0.88041438     0.03000
C2184       C  0.24789414  0.08338314  0.86539639    -0.12200
C2185       C  0.27180971  0.06538682  0.86692752    -0.03300
C2186       C  0.29522828  0.07369507  0.88415582     0.02200
C2187       C  0.26808903  0.14283405  0.91507739     0.09000
N2188       N  0.22158117  0.12578927  0.87953612     0.65400
H2189       H  0.22958339  0.07763133  0.85252958     0.18300
N2190       N  0.31948123  0.05561697  0.88794143     0.75900
H2191       H  0.31207202  0.10590567  0.91232040     0.09800
C2192       C  0.25803049  0.14001455  0.94298073     0.03500
C2193       C  0.24873393  0.16407739  0.95759593    -0.05200
C2194       C  0.24965508  0.19135095  0.94500633    -0.23600
C2195       C  0.26220070  0.19443962  0.91788941     0.12800
C2196       C  0.27108332  0.17002676  0.90303197    -0.12700
N2197       N  0.25547199  0.11254675  0.95598595     0.64400
H2198       H  0.24013247  0.16123401  0.97880372     0.12300
N2199       N  0.26474307  0.22170762  0.90449039     0.61100
H2200       H  0.27882374  0.17211375  0.88141580     0.08400
O2201       O  0.34394434  0.06467569  0.88158149    -0.40400
O2202       O  0.31712906  0.03299018  0.90232464    -0.39600
O2203       O  0.21774145  0.14331103  0.85950261    -0.39600
O2204       O  0.20149711  0.12041417  0.89648892    -0.37300
O2205       O  0.28862040  0.22959984  0.89510293    -0.38200
O2206       O  0.24265273  0.23532482  0.89742991    -0.34300
O2207       O  0.27682986  0.10113039  0.96767421    -0.35700
O2208       O  0.23191494  0.09961758  0.95570762    -0.40000
C2209       C  0.59708062  0.87705935  0.26944280    -0.13700
C2210       C  0.61064090  0.87405760  0.24316888     0.16700
C2211       C  0.60277240  0.85172177  0.22473929     0.03000
C2212       C  0.58153253  0.83252517  0.23305599    -0.12200
C2213       C  0.56810323  0.83523726  0.25961268    -0.03300
C2214       C  0.57554195  0.85824253  0.27767219     0.02200
C2215       C  0.63186425  0.89562270  0.23507119     0.09000
N2216       N  0.61662274  0.84793276  0.19792779     0.65400
H2217       H  0.57596742  0.81504793  0.21896521     0.18300
N2218       N  0.56025973  0.86393119  0.30343435     0.75900
H2219       H  0.60256284  0.89486828  0.28316081     0.09800
C2220       C  0.62475448  0.91801529  0.21648706     0.03500
C2221       C  0.64436548  0.93983424  0.21156216    -0.05200
C2222       C  0.67118641  0.93991899  0.22503268    -0.23600
C2223       C  0.67848991  0.91680543  0.24301027     0.12800
C2224       C  0.65871071  0.89506451  0.24801535    -0.12700
N2225       N  0.59725815  0.91951152  0.20344882     0.64400
H2226       H  0.63821975  0.95707878  0.19745466     0.12300
N2227       N  0.70584138  0.91490165  0.25622307     0.61100
H2228       H  0.66421804  0.87774825  0.26231870     0.08400
O2229       O  0.53363150  0.86746051  0.30258462    -0.40400
O2230       O  0.57367985  0.87028144  0.32587034    -0.39600
O2231       O  0.64216919  0.83966499  0.19723389    -0.39600
O2232       O  0.60230139  0.84878888  0.17517658    -0.37300
O2233       O  0.70888492  0.92249178  0.28182107    -0.38200
O2234       O  0.72562398  0.90154568  0.24392892    -0.34300
O2235       O  0.57655796  0.92946389  0.21732800    -0.35700
O2236       O  0.59483684  0.91591097  0.17693064    -0.40000
C2237       C  0.65476681  0.10220590  0.25550793    -0.13700
C2238       C  0.63309198  0.10964934  0.23613465     0.16700
C2239       C  0.63264420  0.09641170  0.20917923     0.03000
C2240       C  0.65304401  0.07572939  0.20242572    -0.12200
C2241       C  0.67422701  0.06762749  0.22203157    -0.03300
C2242       C  0.67520458  0.08141302  0.24872891     0.02200
C2243       C  0.61100059  0.13095844  0.24443951     0.09000
N2244       N  0.61080951  0.10274569  0.18887620     0.65400
H2245       H  0.65154892  0.06510116  0.18196876     0.18300
N2246       N  0.69736283  0.07531995  0.26873104     0.75900
H2247       H  0.65600533  0.11283521  0.27597923     0.09800
C2248       C  0.59544253  0.12771641  0.26986276     0.03500
C2249       C  0.57508860  0.14805874  0.27750296    -0.05200
C2250       C  0.56916908  0.17165588  0.26002012    -0.23600
C2251       C  0.58462808  0.17501898  0.23455048     0.12800
C2252       C  0.60550860  0.15487152  0.22709813    -0.12700
N2253       N  0.59917769  0.10317619  0.28757571     0.64400
H2254       H  0.56311878  0.14482027  0.29695172     0.12300
N2255       N  0.58024015  0.19933375  0.21672287     0.61100
H2256       H  0.61771657  0.15809738  0.20781614     0.08400
O2257       O  0.69140454  0.06406259  0.29237607    -0.40400
O2258       O  0.72215286  0.08470581  0.26441045    -0.39600
O2259       O  0.61725979  0.11366190  0.16519709    -0.39600
O2260       O  0.58567451  0.09432349  0.19316742    -0.37300
O2261       O  0.59341643  0.22224107  0.22184681    -0.38200
O2262       O  0.56623688  0.19684093  0.19390112    -0.34300
O2263       O  0.60809092  0.10609468  0.31277600    -0.35700
O2264       O  0.59010874  0.07919292  0.27934603    -0.40000
C2265       C  0.78353889  0.16305659  0.09156751    -0.13700
C2266       C  0.76317306  0.14436027  0.08002558     0.16700
C2267       C  0.74664643  0.15332406  0.05659720     0.03000
C2268       C  0.75153043  0.18010404  0.04447995    -0.12200
C2269       C  0.77339804  0.19789957  0.05464277    -0.03300
C2270       C  0.78898659  0.18951732  0.07891824     0.02200
C2271       C  0.75904126  0.11589730  0.09311778     0.09000
N2272       N  0.72648448  0.13458685  0.04343542     0.65400
H2273       H  0.73972598  0.18587003  0.02545098     0.18300
N2274       N  0.81059386  0.20748166  0.09072084     0.75900
H2275       H  0.79560167  0.15688755  0.11029795     0.09800
C2276       C  0.78223808  0.09740573  0.09796253     0.03500
C2277       C  0.77806441  0.07190348  0.11276218    -0.05200
C2278       C  0.75095377  0.06398400  0.12239554    -0.23600
C2279       C  0.72759661  0.08210974  0.11689533     0.12800
C2280       C  0.73188605  0.10793182  0.10257258    -0.12700
N2281       N  0.81014429  0.10423440  0.08794889     0.64400
H2282       H  0.79622946  0.05819694  0.11684609     0.12300
N2283       N  0.69998373  0.07598761  0.12798065     0.61100
H2284       H  0.71402167  0.12230274  0.09966794     0.08400
O2285       O  0.80375429  0.22733601  0.10749521    -0.40400
O2286       O  0.83646078  0.20084946  0.08794099    -0.39600
O2287       O  0.70048128  0.14128716  0.04276485    -0.39600
O2288       O  0.73514481  0.11370571  0.02886534    -0.37300
O2289       O  0.69051769  0.09074521  0.14832406    -0.38200
O2290       O  0.68309382  0.06055972  0.11381013    -0.34300
O2291       O  0.83039607  0.10707135  0.10543246    -0.35700
O2292       O  0.81523776  0.10404667  0.06158952    -0.40000
C2293       C  0.73301913  0.83659924  0.06509834    -0.13700
C2294       C  0.75363260  0.85153003  0.08088448     0.16700
C2295       C  0.78135451  0.84016294  0.08305615     0.03000
C2296       C  0.78846072  0.81560752  0.06771086    -0.12200
C2297       C  0.76844032  0.80139038  0.05041308    -0.03300
C2298       C  0.73998542  0.81144244  0.05020821     0.02200
C2299       C  0.74660579  0.87969178  0.09379717     0.09000
N2300       N  0.80265212  0.85352430  0.10050163     0.65400
H2301       H  0.81019482  0.80797716  0.06896334     0.18300
N2302       N  0.71805954  0.79674131  0.03482546     0.75900
H2303       H  0.71150238  0.84484212  0.06393545     0.09800
C2304       C  0.76196524  0.90458043  0.08641941     0.03500
C2305       C  0.75802383  0.92970467  0.10219460    -0.05200
C2306       C  0.73820406  0.93113118  0.12448906    -0.23600
C2307       C  0.72156359  0.90668833  0.13053221     0.12800
C2308       C  0.72602243  0.88126975  0.11531573    -0.12700
N2309       N  0.78144521  0.90471089  0.06288209     0.64400
H2310       H  0.77041582  0.94843341  0.09676156     0.12300
N2311       N  0.70125267  0.90674374  0.15311931     0.61100
H2312       H  0.71408637  0.86233617  0.12107933     0.08400
O2313       O  0.70151568  0.81043752  0.01861200    -0.40400
O2314       O  0.71246610  0.77106839  0.04075620    -0.39600
O2315       O  0.79741782  0.85920290  0.12622701    -0.39600
O2316       O  0.82759531  0.85690389  0.09115700    -0.37300
O2317       O  0.67523425  0.91050543  0.14756323    -0.38200
O2318       O  0.70858410  0.89847437  0.17762451    -0.34300
O2319       O  0.77465475  0.89292722  0.03966244    -0.35700
O2320       O  0.80410008  0.91915625  0.06418429    -0.40000
C2321       C  0.88505166  0.86143135  0.24330595    -0.13700
C2322       C  0.88284563  0.89046800  0.25006652     0.16700
C2323       C  0.90682869  0.90473795  0.26139305     0.03000
C2324       C  0.93280936  0.89018691  0.26426809    -0.12200
C2325       C  0.93542041  0.86174546  0.25533832    -0.03300
C2326       C  0.91099095  0.84703797  0.24555795     0.02200
C2327       C  0.85577113  0.90561715  0.24365049     0.09000
N2328       N  0.90566019  0.93445031  0.26814928     0.65400
H2329       H  0.95139419  0.90165746  0.27185197     0.18300
N2330       N  0.91210372  0.81744077  0.23793614     0.75900
H2331       H  0.86649107  0.84992588  0.23570866     0.09800
C2332       C  0.84345766  0.90396728  0.21628798     0.03500
C2333       C  0.81831996  0.91867350  0.21040494    -0.05200
C2334       C  0.80519764  0.93604901  0.23097585    -0.23600
C2335       C  0.81634151  0.93604080  0.25905966     0.12800
C2336       C  0.84162251  0.92103887  0.26497913    -0.12700
N2337       N  0.85725519  0.88900817  0.19360807     0.64400
H2338       H  0.81015155  0.91790429  0.18880345     0.12300
N2339       N  0.80243262  0.95098010  0.28172668     0.61100
H2340       H  0.85019004  0.92124982  0.28643314     0.08400
O2341       O  0.90189055  0.80926563  0.21443239    -0.40400
O2342       O  0.91877569  0.79908557  0.25642536    -0.39600
O2343       O  0.90750913  0.94245887  0.29373451    -0.39600
O2344       O  0.90624445  0.95273769  0.24844251    -0.37300
O2345       O  0.77680513  0.94539874  0.28750640    -0.38200
O2346       O  0.81683952  0.96595898  0.29883745    -0.34300
O2347       O  0.84455668  0.86887525  0.18102012    -0.35700
O2348       O  0.88072997  0.89792107  0.18410727    -0.40000
C2349       C  0.84265760  0.07589577  0.26645799    -0.13700
C2350       C  0.85830964  0.08888444  0.24447558     0.16700
C2351       C  0.84790176  0.08715029  0.21626795     0.03000
C2352       C  0.82377504  0.07072690  0.21035118    -0.12200
C2353       C  0.80868322  0.05707122  0.23211911    -0.03300
C2354       C  0.81752656  0.06065710  0.26060922     0.02200
C2355       C  0.88674585  0.10168126  0.25055133     0.09000
N2356       N  0.86184637  0.10165233  0.19335349     0.65400
H2357       H  0.81688978  0.06828786  0.18840478     0.18300
N2358       N  0.80225979  0.04761255  0.28351595     0.75900
H2359       H  0.85040482  0.07686977  0.28819738     0.09800
C2360       C  0.89108618  0.12167479  0.27261885     0.03500
C2361       C  0.91817745  0.13349176  0.27689328    -0.05200
C2362       C  0.94121061  0.12631700  0.25917459    -0.23600
C2363       C  0.93714667  0.10521219  0.23808443     0.12800
C2364       C  0.91020993  0.09304416  0.23416871    -0.12700
N2365       N  0.86796239  0.13146740  0.28980396     0.64400
H2366       H  0.92069703  0.14972787  0.29317177     0.12300
N2367       N  0.96008956  0.09578212  0.22050454     0.61100
H2368       H  0.90759215  0.07668101  0.21803680     0.08400
O2369       O  0.77710122  0.05538069  0.28876612    -0.40400
O2370       O  0.81523736  0.03202386  0.30119514    -0.39600
O2371       O  0.86845568  0.08824244  0.17101966    -0.39600
O2372       O  0.86532803  0.12834476  0.19439162    -0.37300
O2373       O  0.97901868  0.07965178  0.23076216    -0.38200
O2374       O  0.95933890  0.10028151  0.19402545    -0.34300
O2375       O  0.86947945  0.12959865  0.31657047    -0.35700
O2376       O  0.84775556  0.14519799  0.27854713    -0.40000
C2377       C  0.36077961  0.90202461  0.25332487    -0.13700
C2378       C  0.38163555  0.89614372  0.23291113     0.16700
C2379       C  0.38204252  0.91147178  0.20728012     0.03000
C2380       C  0.36206226  0.93299076  0.20260075    -0.12200
C2381       C  0.34122169  0.93935516  0.22308418    -0.03300
C2382       C  0.34050694  0.92339984  0.24860402     0.02200
C2383       C  0.40396409  0.87515601  0.23936145     0.09000
N2384       N  0.40308715  0.90578104  0.18613932     0.65400
H2385       H  0.36278049  0.94464355  0.18267307     0.18300
N2386       N  0.32009525  0.92926971  0.27031810     0.75900
H2387       H  0.36060379  0.89029760  0.27323010     0.09800
C2388       C  0.42611437  0.88213022  0.25819205     0.03500
C2389       C  0.44681339  0.86185441  0.26465408    -0.05200
C2390       C  0.44591820  0.83432066  0.25265315    -0.23600
C2391       C  0.42349844  0.82740131  0.23369226     0.12800
C2392       C  0.40288736  0.84797343  0.22703330    -0.12700
N2393       N  0.42799479  0.90992449  0.27061938     0.64400
H2394       H  0.46376738  0.86790961  0.27914557     0.12300
N2395       N  0.42062983  0.79941153  0.22195498     0.61100
H2396       H  0.38558417  0.84252986  0.21269988     0.08400
O2397       O  0.32430511  0.94959329  0.28745102    -0.40400
O2398       O  0.30034564  0.91166962  0.27506573    -0.39600
O2399       O  0.39767317  0.88865004  0.16611773    -0.39600
O2400       O  0.42592370  0.91994525  0.18587701    -0.37300
O2401       O  0.41072643  0.77955693  0.23711677    -0.38200
O2402       O  0.42352282  0.79563157  0.19552849    -0.34300
O2403       O  0.42221284  0.91335952  0.29660852    -0.35700
O2404       O  0.43897179  0.93013869  0.25670440    -0.40000
C2405       C  0.36033099  0.09383421  0.25970333    -0.13700
C2406       C  0.37610312  0.10778929  0.23849312     0.16700
C2407       C  0.37130960  0.10071839  0.20971155     0.03000
C2408       C  0.35088560  0.08013304  0.20271207    -0.12200
C2409       C  0.33528477  0.06566334  0.22382316    -0.03300
C2410       C  0.33983496  0.07312011  0.25265576     0.02200
C2411       C  0.39823903  0.12892740  0.24666907     0.09000
N2412       N  0.38812198  0.11302685  0.18743497     0.65400
H2413       H  0.34815896  0.07461219  0.18047466     0.18300
N2414       N  0.32368431  0.06018707  0.27496968     0.75900
H2415       H  0.36380058  0.09927654  0.28186541     0.09800
C2416       C  0.39737440  0.15754080  0.23718645     0.03500
C2417       C  0.42053173  0.17573736  0.24276247    -0.05200
C2418       C  0.44438205  0.16623925  0.25827803    -0.23600
C2419       C  0.44487593  0.13753658  0.26787098     0.12800
C2420       C  0.42185949  0.11941984  0.26217516    -0.12700
N2421       N  0.37281281  0.16860874  0.22271698     0.64400
H2422       H  0.41936323  0.19775498  0.23577960     0.12300
N2423       N  0.46891712  0.12604419  0.28268749     0.61100
H2424       H  0.42288706  0.09735573  0.26908397     0.08400
O2425       O  0.29729145  0.06483539  0.27680365    -0.40400
O2426       O  0.33609448  0.04588956  0.29408294    -0.39600
O2427       O  0.41489746  0.11091917  0.18817055    -0.39600
O2428       O  0.37620378  0.12249312  0.16524961    -0.37300
O2429       O  0.46608326  0.11678115  0.30774544    -0.38200
O2430       O  0.49180695  0.12148162  0.26944740    -0.34300
O2431       O  0.34830088  0.16472515  0.23295096    -0.35700
O2432       O  0.37575012  0.18481703  0.20146237    -0.40000
C2433       C  0.27803739  0.88187192  0.11670391    -0.13700
C2434       C  0.25611105  0.88002987  0.09655288     0.16700
C2435       C  0.23955890  0.90430795  0.09046897     0.03000
C2436       C  0.24519734  0.93003591  0.10450264    -0.12200
C2437       C  0.26721111  0.93211685  0.12473578    -0.03300
C2438       C  0.28345206  0.90745047  0.13116935     0.02200
C2439       C  0.25004735  0.85234783  0.08272069     0.09000
N2440       N  0.21728123  0.90320608  0.06968819     0.65400
H2441       H  0.23230947  0.94853433  0.09937837     0.18300
N2442       N  0.30403757  0.90734610  0.15367211     0.75900
H2443       H  0.29032088  0.86299918  0.12199615     0.09800
C2444       C  0.27006717  0.83943151  0.06462002     0.03500
C2445       C  0.26320061  0.81392312  0.05071020    -0.05200
C2446       C  0.23637807  0.80110667  0.05427062    -0.23600
C2447       C  0.21722507  0.81295660  0.07428993     0.12800
C2448       C  0.22408175  0.83863156  0.08796530    -0.12700
N2449       N  0.29663391  0.85305486  0.05863213     0.64400
H2450       H  0.27819971  0.80532035  0.03545840     0.12300
N2451       N  0.19081603  0.79923015  0.08092794     0.61100
H2452       H  0.20906767  0.84796709  0.10278168     0.08400
O2453       O  0.29575358  0.90845901  0.17918679    -0.40400
O2454       O  0.32951410  0.90070848  0.14842807    -0.39600
O2455       O  0.19180246  0.90734043  0.07703763    -0.39600
O2456       O  0.22326195  0.90019420  0.04368724    -0.37300
O2457       O  0.19088862  0.77484039  0.09232652    -0.38200
O2458       O  0.16764233  0.81259221  0.07824670    -0.34300
O2459       O  0.31971740  0.84043274  0.06414207    -0.35700
O2460       O  0.29705813  0.87676341  0.04588634    -0.40000
C2461       C  0.27511693  0.16231423  0.06855514    -0.13700
C2462       C  0.25566789  0.15097601  0.08801740     0.16700
C2463       C  0.23023983  0.16572418  0.09371696     0.03000
C2464       C  0.22368816  0.19050186  0.07846371    -0.12200
C2465       C  0.24207362  0.20085173  0.05724642    -0.03300
C2466       C  0.26873794  0.18725666  0.05338616     0.02200
C2467       C  0.26122947  0.12302510  0.10139464     0.09000
N2468       N  0.20996028  0.15458788  0.11347934     0.65400
H2469       H  0.20328116  0.20065296  0.08205064     0.18300
N2470       N  0.28891868  0.19748665  0.03309335     0.75900
H2471       H  0.29499109  0.15129482  0.06455960     0.09800
C2472       C  0.25910071  0.09760783  0.08549973     0.03500
C2473       C  0.26090242  0.07117846  0.09935556    -0.05200
C2474       C  0.26408812  0.06985869  0.12900912    -0.23600
C2475       C  0.26761363  0.09536225  0.14474624     0.12800
C2476       C  0.26634766  0.12168062  0.13070746    -0.12700
N2477       N  0.25345433  0.09844036  0.05558432     0.64400
H2478       H  0.25850630  0.05169130  0.08714044     0.12300
N2479       N  0.27269672  0.09497760  0.17485692     0.61100
H2480       H  0.26826204  0.14124660  0.14288723     0.08400
O2481       O  0.29144868  0.18507747  0.00939551    -0.40400
O2482       O  0.30696244  0.21604468  0.04045481    -0.39600
O2483       O  0.20534751  0.16746157  0.13660222    -0.39600
O2484       O  0.19679544  0.13175269  0.10796524    -0.37300
O2485       O  0.29270080  0.10970296  0.18521508    -0.38200
O2486       O  0.25446310  0.08427694  0.19137093    -0.34300
O2487       O  0.27307846  0.09306072  0.03811493    -0.35700
O2488       O  0.22935385  0.10624041  0.04656794    -0.40000
C2489       C  0.10281836  0.90348608  0.23762540    -0.13700
C2490       C  0.12762356  0.88910177  0.24609189     0.16700
C2491       C  0.12536013  0.86381880  0.26205221     0.03000
C2492       C  0.09844772  0.85301160  0.26881459    -0.12200
C2493       C  0.07355798  0.86692460  0.25964128    -0.03300
C2494       C  0.07587785  0.89269079  0.24432568     0.02200
C2495       C  0.15558752  0.90142907  0.23861847     0.09000
N2496       N  0.15014645  0.84794540  0.26984162     0.65400
H2497       H  0.09705682  0.83271578  0.27981718     0.18300
N2498       N  0.05110977  0.90844340  0.23611501     0.75900
H2499       H  0.10443415  0.92341413  0.22599198     0.09800
C2500       C  0.16358713  0.90461811  0.21000033     0.03500
C2501       C  0.18795143  0.92022735  0.20317505    -0.05200
C2502       C  0.20481334  0.93303133  0.22450891    -0.23600
C2503       C  0.19785386  0.92790366  0.25335773     0.12800
C2504       C  0.17322150  0.91240410  0.26011599    -0.12700
N2505       N  0.14668387  0.89268909  0.18760889     0.64400
H2506       H  0.19289383  0.92330561  0.18085627     0.12300
N2507       N  0.21513617  0.93871860  0.27600490     0.61100
H2508       H  0.16733039  0.90970972  0.28225788     0.08400
O2509       O  0.04634753  0.91358974  0.21016841    -0.40400
O2510       O  0.03582507  0.91999358  0.25492372    -0.39600
O2511       O  0.15779505  0.84680222  0.29558215    -0.39600
O2512       O  0.16167996  0.83165817  0.25185488    -0.37300
O2513       O  0.20554768  0.95782507  0.29229697    -0.38200
O2514       O  0.23801546  0.92614417  0.28238892    -0.34300
O2515       O  0.13100917  0.90867688  0.17269039    -0.35700
O2516       O  0.15039989  0.86705807  0.18026918    -0.40000
C2517       C  0.15047670  0.05636990  0.25069843    -0.13700
C2518       C  0.15580405  0.08528244  0.25567220     0.16700
C2519       C  0.18398156  0.09562615  0.25468126     0.03000
C2520       C  0.20609732  0.07722620  0.24658235    -0.12200
C2521       C  0.20030253  0.04872883  0.23944297    -0.03300
C2522       C  0.17235560  0.03807804  0.24260295     0.02200
C2523       C  0.13095858  0.10442318  0.25735470     0.09000
N2524       N  0.19024412  0.12472729  0.26140108     0.65400
H2525       H  0.22756166  0.08549460  0.24476262     0.18300
N2526       N  0.16572029  0.00880246  0.23707577     0.75900
H2527       H  0.12887065  0.04826017  0.25158888     0.09800
C2528       C  0.12326401  0.12152015  0.23390033     0.03500
C2529       C  0.09708873  0.13571685  0.23389169    -0.05200
C2530       C  0.07782439  0.13267097  0.25658918    -0.23600
C2531       C  0.08619048  0.11628719  0.28053055     0.12800
C2532       C  0.11251912  0.10227856  0.28060968    -0.12700
N2533       N  0.14085748  0.12302503  0.20908330     0.64400
H2534       H  0.09144098  0.14837749  0.21540921     0.12300
N2535       N  0.06815063  0.11321529  0.30475953     0.61100
H2536       H  0.11825905  0.08891941  0.29857614     0.08400
O2537       O  0.15494590  0.00183857  0.21343557    -0.40400
O2538       O  0.16502169  0.99134087  0.25749162    -0.39600
O2539       O  0.18789438  0.13330878  0.28675204    -0.39600
O2540       O  0.20227366  0.14044923  0.24324128    -0.37300
O2541       O  0.05191022  0.09184837  0.30660608    -0.38200
O2542       O  0.07191352  0.12902438  0.32619332    -0.34300
O2543       O  0.14501179  0.10092530  0.19429491    -0.35700
O2544       O  0.14868488  0.14698880  0.19965903    -0.40000
loop_ 
_geom_bond_atom_site_label_1 
_geom_bond_atom_site_label_2 
_geom_bond_distance 
_geom_bond_site_symmetry_2 
_ccdc_geom_bond_type 
O1          Cr19   1.999       .  S
O1            C9   1.263       .  A
O2          Cr19   1.963       .  S
O2            C3   1.260       .  A
C3            O4   1.273       .  A
C3         C2502   1.489       .  S
O4          Cr20   2.031       .  S
O5          Cr20   1.978       .  S
O5            C6   1.259       .  A
C6            O7   1.262       .  A
C6         C2381   1.478       .  S
O7          Cr21   1.993   1_565  S
O8          Cr21   1.978   1_565  S
O8            C9   1.258       .  A
C9         C2437   1.484       .  S
O10         Cr19   1.973   1_545  S
O10          C18   1.259       .  A
O11         Cr19   1.988   1_545  S
O11          C12   1.261       .  A
C12          O13   1.260       .  A
C12        C2521   1.472       .  S
O13         Cr20   1.987   1_545  S
O14         Cr20   2.030   1_545  S
O14          C15   1.273       .  A
C15          O16   1.260       .  A
C15        C2409   1.491       .  S
O16         Cr21   1.960       .  S
O17         Cr21   2.013       .  S
O17          C18   1.266       .  A
C18        C2474   1.470       .  S
Cr19         O22   1.761       .  S
Cr20         O22   1.767       .  S
Cr21         O22   1.767   1_545  S
O23         Cr41   1.958   1_545  S
O23          C31   1.258       .  A
O24         Cr41   1.998   1_545  S
O24          C25   1.265       .  A
C25          O26   1.262       .  A
C25        C2353   1.473       .  S
O26         Cr42   1.987       .  S
O27         Cr42   2.030       .  S
O27          C28   1.273       .  A
C28          O29   1.260       .  A
C28        C2241   1.488       .  S
O29         Cr43   1.966       .  S
O30         Cr43   2.013       .  S
O30          C31   1.267       .  A
C31        C2278   1.474       .  S
O32         Cr41   2.006       .  S
O32          C40   1.264       .  A
O33         Cr41   1.963       .  S
O33          C34   1.258       .  A
C34          O35   1.269       .  A
C34        C2334   1.491       .  S
O35         Cr42   2.028   1_565  S
O36         Cr42   1.982   1_565  S
O36          C37   1.261       .  A
C37          O38   1.263       .  A
C37        C2222   1.484       .  S
O38         Cr43   1.991   1_565  S
O39         Cr43   1.988   1_565  S
O39          C40   1.258       .  A
C40        C2306   1.490       .  S
Cr41         O44   1.759   1_565  S
Cr42         O44   1.773       .  S
Cr43         O44   1.767       .  S
O45         Cr63   1.979       .  S
O45          C53   1.261       .  A
O46         Cr63   1.980       .  S
O46          C47   1.261       .  A
C47          O48   1.263       .  A
C47        C2194   1.478       .  S
O48         Cr64   1.993       .  S
O49         Cr64   2.020       .  S
O49          C50   1.271       .  A
C50          O51   1.260       .  A
C50        C2073   1.483       .  S
O51         Cr65   1.961       .  S
O52         Cr65   2.020       .  S
O52          C53   1.270       .  A
C53        C2166   1.496       .  S
O54         Cr63   1.998   1_554  S
O54          C62   1.262       .  A
O55         Cr63   1.973   1_554  S
O55          C56   1.263       .  A
C56          O57   1.269       .  A
C56        C2465   1.485       .  S
O57         Cr64   2.016   1_554  S
O58         Cr64   1.986   1_554  S
O58          C59   1.260       .  A
C59          O60   1.264       .  A
C59        C2101   1.488       .  S
O60         Cr65   2.001   1_554  S
O61         Cr65   1.982   1_554  S
O61          C62   1.258       .  A
C62        C2129   1.481       .  S
Cr63         O66   1.762       .  S
Cr64         O66   1.770       .  S
Cr65         O66   1.768       .  S
O67         Cr85   2.003   1_554  S
O67          C75   1.264       .  A
O68         Cr85   1.966   1_554  S
O68          C69   1.258       .  A
C69          O70   1.270       .  A
C69        C2446   1.484       .  S
O70         Cr86   2.020   1_554  S
O71         Cr86   1.974   1_554  S
O71          C72   1.258       .  A
C72          O73   1.265       .  A
C72        C1933   1.484       .  S
O73         Cr87   1.999   1_554  S
O74         Cr87   1.982   1_554  S
O74          C75   1.258       .  A
C75        C2026   1.486       .  S
O76         Cr85   1.967       .  S
O76          C84   1.259       .  A
O77         Cr85   2.000       .  S
O77          C78   1.265       .  A
C78          O79   1.262       .  A
C78        C2045   1.473       .  S
O79         Cr86   1.990       .  S
O80         Cr86   2.021       .  S
O80          C81   1.270       .  A
C81          O82   1.261       .  A
C81        C1961   1.477       .  S
O82         Cr87   1.974       .  S
O83         Cr87   2.017       .  S
O83          C84   1.268       .  A
C84        C1989   1.485       .  S
Cr85         O88   1.761       .  S
Cr86         O88   1.765       .  S
Cr87         O88   1.767       .  S
O89        Cr107   1.961   1_455  S
O89          C97   1.258       .  A
O90        Cr107   2.000   1_455  S
O90          C91   1.263       .  A
C91          O92   1.266       .  A
C91        C2157   1.482       .  S
O92        Cr108   2.004       .  S
O93        Cr108   2.026       .  S
O93          C94   1.273       .  A
C94          O95   1.259       .  A
C94        C1830   1.492       .  S
O95        Cr109   1.965       .  S
O96        Cr109   2.022       .  S
O96          C97   1.272       .  A
C97        C1877   1.488       .  S
O98        Cr107   1.999       .  S
O98         C106   1.262       .  A
O99        Cr107   1.958       .  S
O99         C100   1.258       .  A
C100        O101   1.270       .  A
C100       C1914   1.480       .  S
O101       Cr108   2.025   1_655  S
O102       Cr108   1.982   1_655  S
O102        C103   1.261       .  A
C103        O104   1.264       .  A
C103       C1793   1.477       .  S
O104       Cr109   2.005   1_655  S
O105       Cr109   1.986   1_655  S
O105        C106   1.257       .  A
C106       C1849   1.487       .  S
Cr107       O110   1.757   1_655  S
Cr108       O110   1.765       .  S
Cr109       O110   1.768       .  S
O111       Cr129   2.014   1_655  S
O111        C119   1.267       .  A
O112       Cr129   1.977   1_655  S
O112        C113   1.263       .  A
C113        O114   1.269       .  A
C113       C1774   1.495       .  S
O114       Cr130   2.021   1_655  S
O115       Cr130   1.983   1_655  S
O115        C116   1.261       .  A
C116        O117   1.266       .  A
C116       C1709   1.486       .  S
O117       Cr131   1.999   1_655  S
O118       Cr131   1.970   1_655  S
O118        C119   1.258       .  A
C119       C2362   1.487       .  S
O120       Cr129   1.972       .  S
O120        C128   1.259       .  A
O121       Cr129   1.999       .  S
O121        C122   1.264       .  A
C122        O123   1.262       .  A
C122       C2138   1.467       .  S
O123       Cr130   1.989       .  S
O124       Cr130   2.026       .  S
O124        C125   1.270       .  A
C125        O126   1.257       .  A
C125       C1737   1.481       .  S
O126       Cr131   1.965       .  S
O127       Cr131   2.005       .  S
O127        C128   1.265       .  A
C128       C2530   1.488       .  S
Cr129       O132   1.763       .  S
Cr130       O132   1.767       .  S
Cr131       O132   1.767       .  S
O133       Cr151   2.005       .  S
O133        C141   1.262       .  A
O134       Cr151   1.971       .  S
O134        C135   1.263       .  A
C135        O136   1.275       .  A
C135       C2017   1.492       .  S
O136       Cr152   2.027       .  S
O137       Cr152   1.983       .  S
O137        C138   1.261       .  A
C138        O139   1.263       .  A
C138       C1625   1.481       .  S
O139       Cr153   1.994       .  S
O140       Cr153   1.975       .  S
O140        C141   1.255       .  A
C141       C2493   1.476       .  S
O142       Cr151   1.968   1_655  S
O142        C150   1.258       .  A
O143       Cr151   1.980   1_655  S
O143        C144   1.259       .  A
C144        O145   1.264       .  A
C144       C1690   1.477       .  S
O145       Cr152   2.001   1_655  S
O146       Cr152   2.034   1_655  S
O146        C147   1.273       .  A
C147        O148   1.258       .  A
C147       C1653   1.488       .  S
O148       Cr153   1.954   1_655  S
O149       Cr153   2.020   1_655  S
O149        C150   1.268       .  A
C150       C2325   1.477       .  S
Cr151       O154   1.764       .  S
Cr152       O154   1.769       .  S
Cr153       O154   1.769       .  S
O155       Cr173   1.959       .  S
O155        C163   1.257       .  A
O156       Cr173   1.999       .  S
O156        C157   1.264       .  A
C157        O158   1.262       .  A
C157       C1597   1.465       .  S
O158       Cr174   1.986       .  S
O159       Cr174   2.037       .  S
O159        C160   1.275       .  A
C160        O161   1.257       .  A
C160       C1513   1.494       .  S
O161       Cr175   1.965       .  S
O162       Cr175   2.019       .  S
O162        C163   1.269       .  A
C163       C1569   1.473       .  S
O164       Cr173   2.005   1_554  S
O164        C172   1.263       .  A
O165       Cr173   1.960   1_554  S
O165        C166   1.258       .  A
C166        O167   1.271       .  A
C166       C2297   1.494       .  S
O167       Cr174   2.035   1_554  S
O168       Cr174   1.988   1_554  S
O168        C169   1.262       .  A
C169        O170   1.266       .  A
C169       C1550   1.494       .  S
O170       Cr175   2.005   1_554  S
O171       Cr175   1.975   1_554  S
O171        C172   1.256       .  A
C172       C1681   1.470       .  S
Cr173       O176   1.765       .  S
Cr174       O176   1.769       .  S
Cr175       O176   1.764       .  S
O177       Cr195   1.959   1_545  S
O177        C185   1.260       .  A
O178       Cr195   1.992   1_545  S
O178        C179   1.260       .  A
C179        O180   1.262       .  A
C179       C1886   1.475       .  S
O180       Cr196   1.995       .  S
O181       Cr196   2.011       .  S
O181        C182   1.268       .  A
C182        O183   1.260       .  A
C182       C1438   1.484       .  S
O183       Cr197   1.972       .  S
O184       Cr197   2.012       .  S
O184        C185   1.267       .  A
C185       C2185   1.482       .  S
O186       Cr195   1.995       .  S
O186        C194   1.260       .  A
O187       Cr195   1.962       .  S
O187        C188   1.259       .  A
C188        O189   1.270       .  A
C188       C1494   1.481       .  S
O189       Cr196   2.015   1_565  S
O190       Cr196   1.981   1_565  S
O190        C191   1.261       .  A
C191        O192   1.264       .  A
C191       C1457   1.475       .  S
O192       Cr197   1.995   1_565  S
O193       Cr197   1.992   1_565  S
O193        C194   1.260       .  A
C194       C2054   1.488       .  S
Cr195       O198   1.761       .  S
Cr196       O198   1.770   1_545  S
Cr197       O198   1.768   1_545  S
O199       Cr217   2.000   1_655  S
O199        C207   1.261       .  A
O200       Cr217   1.968   1_655  S
O200        C201   1.262       .  A
C201        O202   1.269       .  A
C201       C1578   1.485       .  S
O202       Cr218   2.018   1_655  S
O203       Cr218   1.988   1_655  S
O203        C204   1.263       .  A
C204        O205   1.264       .  A
C204       C1345   1.487       .  S
O205       Cr219   2.000   1_655  S
O206       Cr219   1.980   1_655  S
O206        C207   1.257       .  A
C207       C1401   1.483       .  S
O208       Cr217   1.956       .  S
O208        C216   1.257       .  A
O209       Cr217   1.987       .  S
O209        C210   1.263       .  A
C210        O211   1.265       .  A
C210       C1998   1.483       .  S
O211       Cr218   2.004       .  S
O212       Cr218   2.017       .  S
O212        C213   1.270       .  A
C213        O214   1.260       .  A
C213       C1373   1.489       .  S
O214       Cr219   1.972       .  S
O215       Cr219   2.020       .  S
O215        C216   1.268       .  A
C216       C1485   1.474       .  S
Cr217       O220   1.762       .  S
Cr218       O220   1.767       .  S
Cr219       O220   1.771       .  S
O221       Cr239   2.000   1_554  S
O221        C229   1.261       .  A
O222       Cr239   1.970   1_554  S
O222        C223   1.261       .  A
C223        O224   1.270       .  A
C223       C2269   1.475       .  S
O224       Cr240   2.014   1_554  S
O225       Cr240   1.979   1_554  S
O225        C226   1.261       .  A
C226        O227   1.264       .  A
C226       C1261   1.478       .  S
O227       Cr241   1.998   1_554  S
O228       Cr241   1.992   1_554  S
O228        C229   1.259       .  A
C229       C1765   1.484       .  S
O230       Cr239   1.955       .  S
O230        C238   1.257       .  A
O231       Cr239   1.989       .  S
O231        C232   1.263       .  A
C232        O233   1.265       .  A
C232       C1317   1.490       .  S
O233       Cr240   2.000       .  S
O234       Cr240   2.021       .  S
O234        C235   1.271       .  A
C235        O236   1.260       .  A
C235       C1289   1.492       .  S
O236       Cr241   1.973       .  S
O237       Cr241   2.013       .  S
O237        C238   1.268       .  A
C238       C1905   1.474       .  S
Cr239       O242   1.762       .  S
Cr240       O242   1.765       .  S
Cr241       O242   1.769       .  S
O243       Cr261   2.003       .  S
O243        C251   1.263       .  A
O244       Cr261   1.975       .  S
O244        C245   1.265       .  A
C245        O246   1.270       .  A
C245       C1410   1.488       .  S
O246       Cr262   2.014   1_565  S
O247       Cr262   1.987   1_565  S
O247        C248   1.262       .  A
C248        O249   1.263       .  A
C248       C1205   1.491       .  S
O249       Cr263   1.996   1_565  S
O250       Cr263   1.979   1_565  S
O250        C251   1.258       .  A
C251       C1606   1.486       .  S
O252       Cr261   1.973   1_545  S
O252        C260   1.259       .  A
O253       Cr261   1.983   1_545  S
O253        C254   1.259       .  A
C254        O255   1.265       .  A
C254       C1858   1.484       .  S
O255       Cr262   2.004       .  S
O256       Cr262   2.020       .  S
O256        C257   1.270       .  A
C257        O258   1.257       .  A
C257       C1233   1.486       .  S
O258       Cr263   1.959       .  S
O259       Cr263   2.012       .  S
O259        C260   1.267       .  A
C260       C1326   1.484       .  S
Cr261       O264   1.763       .  S
Cr262       O264   1.768   1_545  S
Cr263       O264   1.768   1_545  S
O265       Cr283   1.958       .  S
O265        C273   1.259       .  A
O266       Cr283   2.002       .  S
O266        C267   1.261       .  A
C267        O268   1.264       .  A
C267       C1149   1.479       .  S
O268       Cr284   2.003       .  S
O269       Cr284   2.025       .  S
O269        C270   1.271       .  A
C270        O271   1.259       .  A
C270       C2250   1.484       .  S
O271       Cr285   1.961       .  S
O272       Cr285   2.013       .  S
O272        C273   1.269       .  A
C273       C1093   1.470       .  S
O274       Cr283   2.001       .  S
O274        C282   1.260       .  A
O275       Cr283   1.956       .  S
O275        C276   1.259       .  A
C276        O277   1.272       .  A
C276       C1177   1.481       .  S
O277       Cr284   2.022       .  S
O278       Cr284   1.991       .  S
O278        C279   1.263       .  A
C279        O280   1.263       .  A
C279       C2418   1.492       .  S
O280       Cr285   1.995       .  S
O281       Cr285   1.988       .  S
O281        C282   1.258       .  A
C282       C1121   1.492       .  S
Cr283       O286   1.767       .  S
Cr284       O286   1.770       .  S
Cr285       O286   1.768       .  S
O287       Cr305   1.960       .  S
O287        C295   1.257       .  A
O288       Cr305   1.981       .  S
O288        C289   1.260       .  A
C289        O290   1.264       .  A
C289       C1037   1.469       .  S
O290       Cr306   1.995       .  S
O291       Cr306   2.023       .  S
O291        C292   1.272       .  A
C292        O293   1.260       .  A
C292       C1942   1.478       .  S
O293       Cr307   1.955       .  S
O294       Cr307   2.012       .  S
O294        C295   1.265       .  A
C295       C1018   1.472       .  S
O296       Cr305   1.989       .  S
O296        C304   1.260       .  A
O297       Cr305   1.969       .  S
O297        C298   1.259       .  A
C298        O299   1.270       .  A
C298       C1065   1.483       .  S
O299       Cr306   2.014       .  S
O300       Cr306   1.999       .  S
O300        C301   1.264       .  A
C301        O302   1.260       .  A
C301       C2110   1.490       .  S
O302       Cr307   1.990       .  S
O303       Cr307   1.978       .  S
O303        C304   1.258       .  A
C304       C1186   1.471       .  S
Cr305       O308   1.765       .  S
Cr306       O308   1.769       .  S
Cr307       O308   1.768       .  S
O309       Cr327   2.009       .  S
O309        C317   1.263       .  A
O310       Cr327   1.974       .  S
O310        C311   1.263       .  A
C311        O312   1.269       .  A
C311        C981   1.487       .  S
O312       Cr328   2.016       .  S
O313       Cr328   1.986       .  S
O313        C314   1.261       .  A
C314        O315   1.264       .  A
C314       C1821   1.485       .  S
O315       Cr329   2.005       .  S
O316       Cr329   1.981       .  S
O316        C317   1.257       .  A
C317        C953   1.474       .  S
O318       Cr327   1.966       .  S
O318        C326   1.257       .  A
O319       Cr327   1.993       .  S
O319        C320   1.263       .  A
C320        O321   1.265       .  A
C320       C1130   1.479       .  S
O321       Cr328   2.001       .  S
O322       Cr328   2.021       .  S
O322        C323   1.271       .  A
C323        O324   1.261       .  A
C323       C1746   1.489       .  S
O324       Cr329   1.970       .  S
O325       Cr329   2.022       .  S
O325        C326   1.268       .  A
C326       C1074   1.468       .  S
Cr327       O330   1.764       .  S
Cr328       O330   1.764       .  S
Cr329       O330   1.769       .  S
O331       Cr349   1.995       .  S
O331        C339   1.261       .  A
O332       Cr349   1.974       .  S
O332        C333   1.262       .  A
C333        O334   1.272       .  A
C333        C897   1.483       .  S
O334       Cr350   2.021       .  S
O335       Cr350   1.971       .  S
O335        C336   1.261       .  A
C336        O337   1.267       .  A
C336       C1634   1.488       .  S
O337       Cr351   2.009       .  S
O338       Cr351   1.981       .  S
O338        C339   1.256       .  A
C339       C1046   1.483       .  S
O340       Cr349   1.959       .  S
O340        C348   1.258       .  A
O341       Cr349   1.987       .  S
O341        C342   1.262       .  A
C342        O343   1.264       .  A
C342        C925   1.488       .  S
O343       Cr350   2.000       .  S
O344       Cr350   2.018       .  S
O344        C345   1.269       .  A
C345        O346   1.258       .  A
C345       C1382   1.488       .  S
O346       Cr351   1.969       .  S
O347       Cr351   2.023       .  S
O347        C348   1.271       .  A
C348        C878   1.479       .  S
Cr349       O352   1.759       .  S
Cr350       O352   1.766       .  S
Cr351       O352   1.768       .  S
O353       Cr371   1.971       .  S
O353        C361   1.257       .  A
O354       Cr371   1.985       .  S
O354        C355   1.260       .  A
C355        O356   1.262       .  A
C355        C962   1.482       .  S
O356       Cr372   1.997       .  S
O357       Cr372   2.014       .  S
O357        C358   1.270       .  A
C358        O359   1.258       .  A
C358       C2082   1.470       .  S
O359       Cr373   1.956       .  S
O360       Cr373   2.015       .  S
O360        C361   1.265       .  A
C361        C813   1.470       .  S
O362       Cr371   2.009       .  S
O362        C370   1.264       .  A
O363       Cr371   1.965       .  S
O363        C364   1.262       .  A
C364        O365   1.271       .  A
C364        C869   1.485       .  S
O365       Cr372   2.018       .  S
O366       Cr372   1.993       .  S
O366        C367   1.263       .  A
C367        O368   1.261       .  A
C367       C1970   1.479       .  S
O368       Cr373   1.990       .  S
O369       Cr373   1.975       .  S
O369        C370   1.258       .  A
C370        C841   1.490       .  S
Cr371       O374   1.764       .  S
Cr372       O374   1.773       .  S
Cr373       O374   1.772       .  S
O375       Cr393   1.998       .  S
O375        C383   1.262       .  A
O376       Cr393   1.971       .  S
O376        C377   1.260       .  A
C377        O378   1.266       .  A
C377       C1009   1.470       .  S
O378       Cr394   2.006       .  S
O379       Cr394   1.985       .  S
O379        C380   1.262       .  A
C380        O381   1.263       .  A
C380       C2390   1.482       .  S
O381       Cr395   1.986       .  S
O382       Cr395   1.984       .  S
O382        C383   1.257       .  A
C383        C906   1.490       .  S
O384       Cr393   1.969       .  S
O384        C392   1.260       .  A
O385       Cr393   1.987       .  S
O385        C386   1.262       .  A
C386        O387   1.264       .  A
C386        C785   1.472       .  S
O387       Cr394   1.993       .  S
O388       Cr394   2.007       .  S
O388        C389   1.267       .  A
C389        O390   1.261       .  A
C389       C2213   1.475       .  S
O390       Cr395   1.968       .  S
O391       Cr395   2.014       .  S
O391        C392   1.268       .  A
C392        C757   1.491       .  S
Cr393       O396   1.762       .  S
Cr394       O396   1.771       .  S
Cr395       O396   1.767       .  S
O397       Cr415   1.966       .  S
O397        C405   1.258       .  A
O398       Cr415   1.997       .  S
O398        C399   1.266       .  A
C399        O400   1.262       .  A
C399        C701   1.471       .  S
O400       Cr416   1.984       .  S
O401       Cr416   2.025       .  S
O401        C402   1.271       .  A
C402        O403   1.260       .  A
C402       C1270   1.486       .  S
O403       Cr417   1.961       .  S
O404       Cr417   2.031       .  S
O404        C405   1.269       .  A
C405       C1158   1.496       .  S
O406       Cr415   2.004       .  S
O406        C414   1.264       .  A
O407       Cr415   1.976       .  S
O407        C408   1.258       .  A
C408        O409   1.268       .  A
C408        C729   1.479       .  S
O409       Cr416   2.023       .  S
O410       Cr416   1.994       .  S
O410        C411   1.263       .  A
C411        O412   1.266       .  A
C411       C1541   1.486       .  S
O412       Cr417   2.009       .  S
O413       Cr417   1.977       .  S
O413        C414   1.258       .  A
C414        C794   1.476       .  S
Cr415       O418   1.764       .  S
Cr416       O418   1.774       .  S
Cr417       O418   1.768       .  S
O419       Cr437   2.000       .  S
O419        C427   1.262       .  A
O420       Cr437   1.972       .  S
O420        C421   1.263       .  A
C421        O422   1.271       .  A
C421        C682   1.490       .  S
O422       Cr438   2.020       .  S
O423       Cr438   1.985       .  S
O423        C424   1.262       .  A
C424        O425   1.264       .  A
C424       C1354   1.487       .  S
O425       Cr439   2.003       .  S
O426       Cr439   1.987       .  S
O426        C427   1.258       .  A
C427        C645   1.485       .  S
O428       Cr437   1.967       .  S
O428        C436   1.260       .  A
O429       Cr437   1.985       .  S
O429        C430   1.260       .  A
C430        O431   1.266       .  A
C430        C766   1.485       .  S
O431       Cr438   2.002       .  S
O432       Cr438   2.027       .  S
O432        C433   1.271       .  A
C433        O434   1.258       .  A
C433       C1662   1.487       .  S
O434       Cr439   1.962       .  S
O435       Cr439   2.020       .  S
O435        C436   1.270       .  A
C436        C738   1.492       .  S
Cr437       O440   1.762       .  S
Cr438       O440   1.768       .  S
Cr439       O440   1.768       .  S
O441       Cr459   2.008       .  S
O441        C449   1.266       .  A
O442       Cr459   1.973       .  S
O442        C443   1.261       .  A
C443        O444   1.266       .  A
C443        C654   1.487       .  S
O444       Cr460   2.010       .  S
O445       Cr460   1.980       .  S
O445        C446   1.262       .  A
C446        O447   1.265       .  A
C446       C1522   1.489       .  S
O447       Cr461   2.004       .  S
O448       Cr461   1.987       .  S
O448        C449   1.260       .  A
C449        C589   1.484       .  S
O450       Cr459   1.959       .  S
O450        C458   1.257       .  A
O451       Cr459   2.000       .  S
O451        C452   1.266       .  A
C452        O453   1.263       .  A
C452        C626   1.474       .  S
O453       Cr460   1.985       .  S
O454       Cr460   2.019       .  S
O454        C455   1.269       .  A
C455        O456   1.260       .  A
C455       C1298   1.476       .  S
O456       Cr461   1.981       .  S
O457       Cr461   2.010       .  S
O457        C458   1.265       .  A
C458        C561   1.480       .  S
Cr459       O462   1.765       .  S
Cr460       O462   1.771       .  S
Cr461       O462   1.770       .  S
O463       Cr481   2.006       .  S
O463        C471   1.263       .  A
O464       Cr481   1.981       .  S
O464        C465   1.264       .  A
C465        O466   1.268       .  A
C465        C598   1.492       .  S
O466       Cr482   2.016       .  S
O467       Cr482   1.988       .  S
O467        C468   1.263       .  A
C468        O469   1.264       .  A
C468       C1214   1.488       .  S
O469       Cr483   1.998       .  S
O470       Cr483   1.974       .  S
O470        C471   1.255       .  A
C471        C673   1.478       .  S
O472       Cr481   1.972       .  S
O472        C480   1.259       .  A
O473       Cr481   1.986       .  S
O473        C474   1.263       .  A
C474        O475   1.267       .  A
C474        C850   1.477       .  S
O475       Cr482   2.006       .  S
O476       Cr482   2.022       .  S
O476        C477   1.270       .  A
C477        O478   1.258       .  A
C477       C1466   1.476       .  S
O478       Cr483   1.972       .  S
O479       Cr483   2.011       .  S
O479        C480   1.268       .  A
C480        C934   1.489       .  S
Cr481       O484   1.763       .  S
Cr482       O484   1.767       .  S
Cr483       O484   1.769       .  S
O485       Cr503   1.954       .  S
O485        C493   1.254       .  A
O486       Cr503   1.995       .  S
O486        C487   1.266       .  A
C487        O488   1.264       .  A
C487        C822   1.476       .  S
O488       Cr504   1.990       .  S
O489       Cr504   2.014       .  S
O489        C490   1.268       .  A
C490        O491   1.259       .  A
C490       C1429   1.479       .  S
O491       Cr505   1.969       .  S
O492       Cr505   2.016       .  S
O492        C493   1.266       .  A
C493        C990   1.467       .  S
O494       Cr503   2.007       .  S
O494        C502   1.266       .  A
O495       Cr503   1.968       .  S
O495        C496   1.258       .  A
C496        O497   1.266       .  A
C496        C570   1.469       .  S
O497       Cr504   2.013       .  S
O498       Cr504   1.980       .  S
O498        C499   1.262       .  A
C499        O500   1.267       .  A
C499       C1242   1.485       .  S
O500       Cr505   2.000       .  S
O501       Cr505   1.974       .  S
O501        C502   1.257       .  A
C502        C542   1.485       .  S
Cr503       O506   1.758       .  S
Cr504       O506   1.769       .  S
Cr505       O506   1.769       .  S
O507       Cr525   1.991       .  S
O507        C515   1.260       .  A
O508       Cr525   1.969       .  S
O508        C509   1.262       .  A
C509        O510   1.270       .  A
C509       C1102   1.479       .  S
O510       Cr526   2.012       .  S
O511       Cr526   1.980       .  S
O511        C512   1.260       .  A
C512        O513   1.265       .  A
C512       C1718   1.487       .  S
O513       Cr527   1.998       .  S
O514       Cr527   1.985       .  S
O514        C515   1.256       .  A
C515        C710   1.483       .  S
O516       Cr525   1.957       .  S
O516        C524   1.259       .  A
O517       Cr525   1.983       .  S
O517        C518   1.259       .  A
C518        O519   1.266       .  A
C518        C533   1.491       .  S
O519       Cr526   2.006       .  S
O520       Cr526   2.020       .  S
O520        C521   1.270       .  A
C521        O522   1.258       .  A
C521       C1802   1.489       .  S
O522       Cr527   1.964       .  S
O523       Cr527   2.025       .  S
O523        C524   1.270       .  A
C524        C617   1.477       .  S
Cr525       O528   1.760       .  S
Cr526       O528   1.769       .  S
Cr527       O528   1.769       .  S
C529        C530   1.396       .  A
C529        C534   1.392       .  A
C529        H539   1.085       .  S
C530        C535   1.483       .  S
C530        C531   1.410       .  A
C531        C532   1.409       .  A
C531        N536   1.427       .  S
C532        C533   1.408       .  A
C532        H537   1.084       .  S
C533        C534   1.421       .  A
C534        N538   1.431       .  S
C535        C540   1.410       .  A
C535        C544   1.402       .  A
N536        O551   1.262       .  A
N536        O552   1.262       .  A
N538        O549   1.262       .  A
N538        O550   1.261       .  A
C540        C541   1.397       .  A
C540        N545   1.431       .  S
C541        C542   1.404       .  A
C541        H546   1.084       .  S
C542        C543   1.417       .  A
C543        C544   1.405       .  A
C543        N547   1.431       .  S
C544        H548   1.084       .  S
N545        O555   1.262       .  A
N545        O556   1.262       .  A
N547        O553   1.262       .  A
N547        O554   1.262       .  A
C557        C558   1.402       .  A
C557        C562   1.400       .  A
C557        H567   1.084       .  S
C558        C563   1.479       .  S
C558        C559   1.412       .  A
C559        C560   1.397       .  A
C559        N564   1.435       .  S
C560        C561   1.404       .  A
C560        H565   1.084       .  S
C561        C562   1.413       .  A
C562        N566   1.429       .  S
C563        C568   1.415       .  A
C563        C572   1.400       .  A
N564        O579   1.262       .  A
N564        O580   1.263       .  A
N566        O577   1.262       .  A
N566        O578   1.262       .  A
C568        C569   1.402       .  A
C568        N573   1.437       .  S
C569        C570   1.401       .  A
C569        H574   1.084       .  S
C570        C571   1.411       .  A
C571        C572   1.396       .  A
C571        N575   1.430       .  S
C572        H576   1.084       .  S
N573        O583   1.263       .  A
N573        O584   1.263       .  A
N575        O581   1.262       .  A
N575        O582   1.262       .  A
C585        C586   1.401       .  A
C585        C590   1.399       .  A
C585        H595   1.085       .  S
C586        C591   1.481       .  S
C586        C587   1.408       .  A
C587        C588   1.406       .  A
C587        N592   1.430       .  S
C588        C589   1.408       .  A
C588        H593   1.084       .  S
C589        C590   1.412       .  A
C590        N594   1.431       .  S
C591        C596   1.406       .  A
C591        C600   1.400       .  A
N592        O607   1.262       .  A
N592        O608   1.262       .  A
N594        O605   1.262       .  A
N594        O606   1.262       .  A
C596        C597   1.400       .  A
C596        N601   1.429       .  S
C597        C598   1.407       .  A
C597        H602   1.084       .  S
C598        C599   1.420       .  A
C599        C600   1.404       .  A
C599        N603   1.430       .  S
C600        H604   1.084       .  S
N601        O611   1.262       .  A
N601        O612   1.262       .  A
N603        O609   1.262       .  A
N603        O610   1.262       .  A
C613        C614   1.408       .  A
C613        C618   1.406       .  A
C613        H623   1.084       .  S
C614        C619   1.487       .  S
C614        C615   1.410       .  A
C615        C616   1.394       .  A
C615        N620   1.433       .  S
C616        C617   1.403       .  A
C616        H621   1.085       .  S
C617        C618   1.410       .  A
C618        N622   1.428       .  S
C619        C624   1.412       .  A
C619        C628   1.404       .  A
N620        O635   1.262       .  A
N620        O636   1.262       .  A
N622        O633   1.262       .  A
N622        O634   1.262       .  A
C624        C625   1.405       .  A
C624        N629   1.429       .  S
C625        C626   1.403       .  A
C625        H630   1.084       .  S
C626        C627   1.407       .  A
C627        C628   1.396       .  A
C627        N631   1.429       .  S
C628        H632   1.084       .  S
N629        O639   1.262       .  A
N629        O640   1.262       .  A
N631        O637   1.262       .  A
N631        O638   1.261       .  A
C641        C642   1.399       .  A
C641        C646   1.397       .  A
C641        H651   1.084       .  S
C642        C647   1.476       .  S
C642        C643   1.406       .  A
C643        C644   1.404       .  A
C643        N648   1.429       .  S
C644        C645   1.409       .  A
C644        H649   1.084       .  S
C645        C646   1.414       .  A
C646        N650   1.430       .  S
C647        C652   1.407       .  A
C647        C656   1.399       .  A
N648        O663   1.262       .  A
N648        O664   1.262       .  A
N650        O661   1.262       .  A
N650        O662   1.262       .  A
C652        C653   1.401       .  A
C652        N657   1.433       .  S
C653        C654   1.407       .  A
C653        H658   1.084       .  S
C654        C655   1.418       .  A
C655        C656   1.401       .  A
C655        N659   1.429       .  S
C656        H660   1.084       .  S
N657        O667   1.262       .  A
N657        O668   1.262       .  A
N659        O665   1.262       .  A
N659        O666   1.262       .  A
C669        C670   1.402       .  A
C669        C674   1.398       .  A
C669        H679   1.084       .  S
C670        C675   1.477       .  S
C670        C671   1.405       .  A
C671        C672   1.402       .  A
C671        N676   1.429       .  S
C672        C673   1.408       .  A
C672        H677   1.084       .  S
C673        C674   1.410       .  A
C674        N678   1.429       .  S
C675        C680   1.406       .  A
C675        C684   1.400       .  A
N676        O691   1.262       .  A
N676        O692   1.262       .  A
N678        O689   1.262       .  A
N678        O690   1.262       .  A
C680        C681   1.399       .  A
C680        N685   1.432       .  S
C681        C682   1.409       .  A
C681        H686   1.084       .  S
C682        C683   1.419       .  A
C683        C684   1.402       .  A
C683        N687   1.430       .  S
C684        H688   1.084       .  S
N685        O695   1.262       .  A
N685        O696   1.262       .  A
N687        O693   1.262       .  A
N687        O694   1.262       .  A
C697        C698   1.401       .  A
C697        C702   1.395       .  A
C697        H707   1.085       .  S
C698        C703   1.482       .  S
C698        C699   1.411       .  A
C699        C700   1.405       .  A
C699        N704   1.431       .  S
C700        C701   1.403       .  A
C700        H705   1.084       .  S
C701        C702   1.408       .  A
C702        N706   1.430       .  S
C703        C708   1.409       .  A
C703        C712   1.403       .  A
N704        O719   1.262       .  A
N704        O720   1.262       .  A
N706        O717   1.262       .  A
N706        O718   1.262       .  A
C708        C709   1.394       .  A
C708        N713   1.430       .  S
C709        C710   1.404       .  A
C709        H714   1.084       .  S
C710        C711   1.417       .  A
C711        C712   1.404       .  A
C711        N715   1.431       .  S
C712        H716   1.085       .  S
N713        O723   1.262       .  A
N713        O724   1.262       .  A
N715        O721   1.262       .  A
N715        O722   1.262       .  A
C725        C726   1.403       .  A
C725        C730   1.400       .  A
C725        H735   1.084       .  S
C726        C731   1.493       .  S
C726        C727   1.419       .  A
C727        C728   1.408       .  A
C727        N732   1.437       .  S
C728        C729   1.403       .  A
C728        H733   1.084       .  S
C729        C730   1.410       .  A
C730        N734   1.429       .  S
C731        C736   1.415       .  A
C731        C740   1.406       .  A
N732        O747   1.263       .  A
N732        O748   1.263       .  A
N734        O745   1.262       .  A
N734        O746   1.262       .  A
C736        C737   1.402       .  A
C736        N741   1.436       .  S
C737        C738   1.407       .  A
C737        H742   1.083       .  S
C738        C739   1.414       .  A
C739        C740   1.405       .  A
C739        N743   1.429       .  S
C740        H744   1.084       .  S
N741        O751   1.262       .  A
N741        O752   1.263       .  A
N743        O749   1.262       .  A
N743        O750   1.262       .  A
C753        C754   1.401       .  A
C753        C758   1.403       .  A
C753        H763   1.085       .  S
C754        C759   1.479       .  S
C754        C755   1.407       .  A
C755        C756   1.399       .  A
C755        N760   1.431       .  S
C756        C757   1.409       .  A
C756        H761   1.085       .  S
C757        C758   1.416       .  A
C758        N762   1.428       .  S
C759        C764   1.411       .  A
C759        C768   1.395       .  A
N760        O775   1.262       .  A
N760        O776   1.262       .  A
N762        O773   1.262       .  A
N762        O774   1.262       .  A
C764        C765   1.407       .  A
C764        N769   1.430       .  S
C765        C766   1.405       .  A
C765        H770   1.084       .  S
C766        C767   1.419       .  A
C767        C768   1.394       .  A
C767        N771   1.430       .  S
C768        H772   1.085       .  S
N769        O779   1.262       .  A
N769        O780   1.262       .  A
N771        O777   1.261       .  A
N771        O778   1.262       .  A
C781        C782   1.404       .  A
C781        C786   1.404       .  A
C781        H791   1.085       .  S
C782        C787   1.480       .  S
C782        C783   1.411       .  A
C783        C784   1.397       .  A
C783        N788   1.434       .  S
C784        C785   1.402       .  A
C784        H789   1.085       .  S
C785        C786   1.408       .  A
C786        N790   1.428       .  S
C787        C792   1.413       .  A
C787        C796   1.401       .  A
N788        O803   1.262       .  A
N788        O804   1.262       .  A
N790        O801   1.262       .  A
N790        O802   1.262       .  A
C792        C793   1.400       .  A
C792        N797   1.434       .  S
C793        C794   1.401       .  A
C793        H798   1.084       .  S
C794        C795   1.413       .  A
C795        C796   1.402       .  A
C795        N799   1.429       .  S
C796        H800   1.084       .  S
N797        O807   1.262       .  A
N797        O808   1.262       .  A
N799        O805   1.262       .  A
N799        O806   1.262       .  A
C809        C810   1.399       .  A
C809        C814   1.400       .  A
C809        H819   1.084       .  S
C810        C815   1.474       .  S
C810        C811   1.410       .  A
C811        C812   1.401       .  A
C811        N816   1.429       .  S
C812        C813   1.400       .  A
C812        H817   1.084       .  S
C813        C814   1.412       .  A
C814        N818   1.430       .  S
C815        C820   1.407       .  A
C815        C824   1.397       .  A
N816        O831   1.262       .  A
N816        O832   1.261       .  A
N818        O829   1.262       .  A
N818        O830   1.262       .  A
C820        C821   1.406       .  A
C820        N825   1.428       .  S
C821        C822   1.406       .  A
C821        H826   1.084       .  S
C822        C823   1.412       .  A
C823        C824   1.392       .  A
C823        N827   1.429       .  S
C824        H828   1.085       .  S
N825        O835   1.262       .  A
N825        O836   1.262       .  A
N827        O833   1.261       .  A
N827        O834   1.262       .  A
C837        C838   1.404       .  A
C837        C842   1.402       .  A
C837        H847   1.085       .  S
C838        C843   1.487       .  S
C838        C839   1.406       .  A
C839        C840   1.401       .  A
C839        N844   1.428       .  S
C840        C841   1.409       .  A
C840        H845   1.085       .  S
C841        C842   1.417       .  A
C842        N846   1.430       .  S
C843        C848   1.408       .  A
C843        C852   1.409       .  A
N844        O859   1.262       .  A
N844        O860   1.262       .  A
N846        O857   1.262       .  A
N846        O858   1.262       .  A
C848        C849   1.395       .  A
C848        N853   1.430       .  S
C849        C850   1.404       .  A
C849        H854   1.085       .  S
C850        C851   1.408       .  A
C851        C852   1.408       .  A
C851        N855   1.429       .  S
C852        H856   1.084       .  S
N853        O863   1.262       .  A
N853        O864   1.262       .  A
N855        O861   1.262       .  A
N855        O862   1.262       .  A
C865        C866   1.402       .  A
C865        C870   1.401       .  A
C865        H875   1.085       .  S
C866        C871   1.481       .  S
C866        C867   1.409       .  A
C867        C868   1.397       .  A
C867        N872   1.430       .  S
C868        C869   1.407       .  A
C868        H873   1.084       .  S
C869        C870   1.415       .  A
C870        N874   1.429       .  S
C871        C876   1.411       .  A
C871        C880   1.400       .  A
N872        O887   1.262       .  A
N872        O888   1.262       .  A
N874        O885   1.262       .  A
N874        O886   1.262       .  A
C876        C877   1.403       .  A
C876        N881   1.429       .  S
C877        C878   1.404       .  A
C877        H882   1.084       .  S
C878        C879   1.415       .  A
C879        C880   1.395       .  A
C879        N883   1.430       .  S
C880        H884   1.085       .  S
N881        O891   1.262       .  A
N881        O892   1.262       .  A
N883        O889   1.261       .  A
N883        O890   1.262       .  A
C893        C894   1.405       .  A
C893        C898   1.404       .  A
C893        H903   1.084       .  S
C894        C899   1.485       .  S
C894        C895   1.409       .  A
C895        C896   1.399       .  A
C895        N900   1.431       .  S
C896        C897   1.406       .  A
C896        H901   1.084       .  S
C897        C898   1.414       .  A
C898        N902   1.432       .  S
C899        C904   1.408       .  A
C899        C908   1.403       .  A
N900        O915   1.262       .  A
N900        O916   1.262       .  A
N902        O913   1.262       .  A
N902        O914   1.262       .  A
C904        C905   1.399       .  A
C904        N909   1.430       .  S
C905        C906   1.408       .  A
C905        H910   1.084       .  S
C906        C907   1.417       .  A
C907        C908   1.403       .  A
C907        N911   1.429       .  S
C908        H912   1.084       .  S
N909        O919   1.262       .  A
N909        O920   1.262       .  A
N911        O917   1.262       .  A
N911        O918   1.262       .  A
C921        C922   1.405       .  A
C921        C926   1.410       .  A
C921        H931   1.084       .  S
C922        C927   1.476       .  S
C922        C923   1.402       .  A
C923        C924   1.390       .  A
C923        N928   1.430       .  S
C924        C925   1.409       .  A
C924        H929   1.084       .  S
C925        C926   1.416       .  A
C926        N930   1.431       .  S
C927        C932   1.405       .  A
C927        C936   1.399       .  A
N928        O943   1.262       .  A
N928        O944   1.262       .  A
N930        O941   1.262       .  A
N930        O942   1.262       .  A
C932        C933   1.403       .  A
C932        N937   1.429       .  S
C933        C934   1.410       .  A
C933        H938   1.084       .  S
C934        C935   1.417       .  A
C935        C936   1.398       .  A
C935        N939   1.429       .  S
C936        H940   1.084       .  S
N937        O947   1.262       .  A
N937        O948   1.262       .  A
N939        O945   1.262       .  A
N939        O946   1.262       .  A
C949        C950   1.405       .  A
C949        C954   1.400       .  A
C949        H959   1.085       .  S
C950        C955   1.481       .  S
C950        C951   1.406       .  A
C951        C952   1.403       .  A
C951        N956   1.429       .  S
C952        C953   1.406       .  A
C952        H957   1.085       .  S
C953        C954   1.407       .  A
C954        N958   1.429       .  S
C955        C960   1.405       .  A
C955        C964   1.405       .  A
N956        O971   1.262       .  A
N956        O972   1.262       .  A
N958        O969   1.262       .  A
N958        O970   1.262       .  A
C960        C961   1.395       .  A
C960        N965   1.431       .  S
C961        C962   1.406       .  A
C961        H966   1.085       .  S
C962        C963   1.414       .  A
C963        C964   1.408       .  A
C963        N967   1.430       .  S
C964        H968   1.084       .  S
N965        O975   1.262       .  A
N965        O976   1.262       .  A
N967        O973   1.262       .  A
N967        O974   1.262       .  A
C977        C978   1.399       .  A
C977        C982   1.399       .  A
C977        H987   1.084       .  S
C978        C983   1.480       .  S
C978        C979   1.412       .  A
C979        C980   1.401       .  A
C979        N984   1.433       .  S
C980        C981   1.407       .  A
C980        H985   1.084       .  S
C981        C982   1.417       .  A
C982        N986   1.429       .  S
C983        C988   1.411       .  A
C983        C992   1.407       .  A
N984        O999   1.262       .  A
N984       O1000   1.262       .  A
N986        O997   1.262       .  A
N986        O998   1.262       .  A
C988        C989   1.398       .  A
C988        N993   1.435       .  S
C989        C990   1.402       .  A
C989        H994   1.085       .  S
C990        C991   1.404       .  A
C991        C992   1.401       .  A
C991        N995   1.428       .  S
C992        H996   1.084       .  S
N993       O1003   1.262       .  A
N993       O1004   1.263       .  A
N995       O1001   1.262       .  A
N995       O1002   1.262       .  A
C1005      C1006   1.402       .  A
C1005      C1010   1.395       .  A
C1005      H1015   1.085       .  S
C1006      C1011   1.475       .  S
C1006      C1007   1.408       .  A
C1007      C1008   1.399       .  A
C1007      N1012   1.430       .  S
C1008      C1009   1.405       .  A
C1008      H1013   1.085       .  S
C1009      C1010   1.409       .  A
C1010      N1014   1.430       .  S
C1011      C1016   1.408       .  A
C1011      C1020   1.401       .  A
N1012      O1027   1.262       .  A
N1012      O1028   1.262       .  A
N1014      O1025   1.262       .  A
N1014      O1026   1.261       .  A
C1016      C1017   1.393       .  A
C1016      N1021   1.430       .  S
C1017      C1018   1.402       .  A
C1017      H1022   1.085       .  S
C1018      C1019   1.413       .  A
C1019      C1020   1.401       .  A
C1019      N1023   1.429       .  S
C1020      H1024   1.085       .  S
N1021      O1031   1.262       .  A
N1021      O1032   1.262       .  A
N1023      O1029   1.262       .  A
N1023      O1030   1.262       .  A
C1033      C1034   1.403       .  A
C1033      C1038   1.396       .  A
C1033      H1043   1.085       .  S
C1034      C1039   1.484       .  S
C1034      C1035   1.412       .  A
C1035      C1036   1.405       .  A
C1035      N1040   1.431       .  S
C1036      C1037   1.402       .  A
C1036      H1041   1.085       .  S
C1037      C1038   1.409       .  A
C1038      N1042   1.431       .  S
C1039      C1044   1.410       .  A
C1039      C1048   1.403       .  A
N1040      O1055   1.262       .  A
N1040      O1056   1.262       .  A
N1042      O1053   1.262       .  A
N1042      O1054   1.262       .  A
C1044      C1045   1.397       .  A
C1044      N1049   1.432       .  S
C1045      C1046   1.405       .  A
C1045      H1050   1.084       .  S
C1046      C1047   1.415       .  A
C1047      C1048   1.402       .  A
C1047      N1051   1.430       .  S
C1048      H1052   1.085       .  S
N1049      O1059   1.262       .  A
N1049      O1060   1.262       .  A
N1051      O1057   1.262       .  A
N1051      O1058   1.262       .  A
C1061      C1062   1.404       .  A
C1061      C1066   1.401       .  A
C1061      H1071   1.085       .  S
C1062      C1067   1.482       .  S
C1062      C1063   1.406       .  A
C1063      C1064   1.399       .  A
C1063      N1068   1.429       .  S
C1064      C1065   1.406       .  A
C1064      H1069   1.084       .  S
C1065      C1066   1.414       .  A
C1066      N1070   1.429       .  S
C1067      C1072   1.408       .  A
C1067      C1076   1.407       .  A
N1068      O1083   1.262       .  A
N1068      O1084   1.262       .  A
N1070      O1081   1.261       .  A
N1070      O1082   1.262       .  A
C1072      C1073   1.398       .  A
C1072      N1077   1.430       .  S
C1073      C1074   1.401       .  A
C1073      H1078   1.085       .  S
C1074      C1075   1.406       .  A
C1075      C1076   1.403       .  A
C1075      N1079   1.429       .  S
C1076      H1080   1.084       .  S
N1077      O1087   1.262       .  A
N1077      O1088   1.262       .  A
N1079      O1085   1.262       .  A
N1079      O1086   1.262       .  A
C1089      C1090   1.403       .  A
C1089      C1094   1.398       .  A
C1089      H1099   1.085       .  S
C1090      C1095   1.480       .  S
C1090      C1091   1.411       .  A
C1091      C1092   1.397       .  A
C1091      N1096   1.432       .  S
C1092      C1093   1.401       .  A
C1092      H1097   1.085       .  S
C1093      C1094   1.410       .  A
C1094      N1098   1.429       .  S
C1095      C1100   1.410       .  A
C1095      C1104   1.403       .  A
N1096      O1111   1.262       .  A
N1096      O1112   1.262       .  A
N1098      O1109   1.262       .  A
N1098      O1110   1.262       .  A
C1100      C1101   1.398       .  A
C1100      N1105   1.433       .  S
C1101      C1102   1.406       .  A
C1101      H1106   1.085       .  S
C1102      C1103   1.412       .  A
C1103      C1104   1.398       .  A
C1103      N1107   1.432       .  S
C1104      H1108   1.085       .  S
N1105      O1115   1.262       .  A
N1105      O1116   1.262       .  A
N1107      O1113   1.262       .  A
N1107      O1114   1.262       .  A
C1117      C1118   1.402       .  A
C1117      C1122   1.398       .  A
C1117      H1127   1.085       .  S
C1118      C1123   1.486       .  S
C1118      C1119   1.407       .  A
C1119      C1120   1.405       .  A
C1119      N1124   1.428       .  S
C1120      C1121   1.410       .  A
C1120      H1125   1.084       .  S
C1121      C1122   1.417       .  A
C1122      N1126   1.429       .  S
C1123      C1128   1.408       .  A
C1123      C1132   1.407       .  A
N1124      O1139   1.262       .  A
N1124      O1140   1.262       .  A
N1126      O1137   1.262       .  A
N1126      O1138   1.262       .  A
C1128      C1129   1.395       .  A
C1128      N1133   1.430       .  S
C1129      C1130   1.404       .  A
C1129      H1134   1.085       .  S
C1130      C1131   1.410       .  A
C1131      C1132   1.408       .  A
C1131      N1135   1.429       .  S
C1132      H1136   1.084       .  S
N1133      O1143   1.262       .  A
N1133      O1144   1.262       .  A
N1135      O1141   1.262       .  A
N1135      O1142   1.262       .  A
C1145      C1146   1.407       .  A
C1145      C1150   1.406       .  A
C1145      H1155   1.085       .  S
C1146      C1151   1.491       .  S
C1146      C1147   1.409       .  A
C1147      C1148   1.403       .  A
C1147      N1152   1.429       .  S
C1148      C1149   1.405       .  A
C1148      H1153   1.085       .  S
C1149      C1150   1.409       .  A
C1150      N1154   1.430       .  S
C1151      C1156   1.408       .  A
C1151      C1160   1.405       .  A
N1152      O1167   1.262       .  A
N1152      O1168   1.262       .  A
N1154      O1165   1.262       .  A
N1154      O1166   1.262       .  A
C1156      C1157   1.397       .  A
C1156      N1161   1.429       .  S
C1157      C1158   1.406       .  A
C1157      H1162   1.088       .  S
C1158      C1159   1.417       .  A
C1159      C1160   1.410       .  A
C1159      N1163   1.428       .  S
C1160      H1164   1.087       .  S
N1161      O1171   1.262       .  A
N1161      O1172   1.262       .  A
N1163      O1169   1.262       .  A
N1163      O1170   1.262       .  A
C1173      C1174   1.399       .  A
C1173      C1178   1.397       .  A
C1173      H1183   1.084       .  S
C1174      C1179   1.473       .  S
C1174      C1175   1.409       .  A
C1175      C1176   1.396       .  A
C1175      N1180   1.433       .  S
C1176      C1177   1.408       .  A
C1176      H1181   1.084       .  S
C1177      C1178   1.413       .  A
C1178      N1182   1.428       .  S
C1179      C1184   1.412       .  A
C1179      C1188   1.401       .  A
N1180      O1195   1.261       .  A
N1180      O1196   1.263       .  A
N1182      O1193   1.262       .  A
N1182      O1194   1.262       .  A
C1184      C1185   1.397       .  A
C1184      N1189   1.436       .  S
C1185      C1186   1.402       .  A
C1185      H1190   1.084       .  S
C1186      C1187   1.412       .  A
C1187      C1188   1.398       .  A
C1187      N1191   1.430       .  S
C1188      H1192   1.084       .  S
N1189      O1199   1.262       .  A
N1189      O1200   1.263       .  A
N1191      O1197   1.262       .  A
N1191      O1198   1.262       .  A
C1201      C1202   1.397       .  A
C1201      C1206   1.398       .  A
C1201      H1211   1.085       .  S
C1202      C1207   1.477       .  S
C1202      C1203   1.407       .  A
C1203      C1204   1.404       .  A
C1203      N1208   1.429       .  S
C1204      C1205   1.409       .  A
C1204      H1209   1.084       .  S
C1205      C1206   1.419       .  A
C1206      N1210   1.430       .  S
C1207      C1212   1.406       .  A
C1207      C1216   1.398       .  A
N1208      O1223   1.262       .  A
N1208      O1224   1.262       .  A
N1210      O1221   1.262       .  A
N1210      O1222   1.262       .  A
C1212      C1213   1.402       .  A
C1212      N1217   1.428       .  S
C1213      C1214   1.407       .  A
C1213      H1218   1.084       .  S
C1214      C1215   1.419       .  A
C1215      C1216   1.400       .  A
C1215      N1219   1.430       .  S
C1216      H1220   1.085       .  S
N1217      O1227   1.262       .  A
N1217      O1228   1.262       .  A
N1219      O1225   1.262       .  A
N1219      O1226   1.262       .  A
C1229      C1230   1.397       .  A
C1229      C1234   1.395       .  A
C1229      H1239   1.085       .  S
C1230      C1235   1.477       .  S
C1230      C1231   1.409       .  A
C1231      C1232   1.402       .  A
C1231      N1236   1.431       .  S
C1232      C1233   1.407       .  A
C1232      H1237   1.084       .  S
C1233      C1234   1.418       .  A
C1234      N1238   1.429       .  S
C1235      C1240   1.410       .  A
C1235      C1244   1.401       .  A
N1236      O1251   1.262       .  A
N1236      O1252   1.262       .  A
N1238      O1249   1.262       .  A
N1238      O1250   1.262       .  A
C1240      C1241   1.399       .  A
C1240      N1245   1.434       .  S
C1241      C1242   1.407       .  A
C1241      H1246   1.084       .  S
C1242      C1243   1.415       .  A
C1243      C1244   1.401       .  A
C1243      N1247   1.430       .  S
C1244      H1248   1.084       .  S
N1245      O1255   1.262       .  A
N1245      O1256   1.262       .  A
N1247      O1253   1.262       .  A
N1247      O1254   1.262       .  A
C1257      C1258   1.400       .  A
C1257      C1262   1.399       .  A
C1257      H1267   1.084       .  S
C1258      C1263   1.473       .  S
C1258      C1259   1.405       .  A
C1259      C1260   1.399       .  A
C1259      N1264   1.429       .  S
C1260      C1261   1.406       .  A
C1260      H1265   1.084       .  S
C1261      C1262   1.413       .  A
C1262      N1266   1.429       .  S
C1263      C1268   1.402       .  A
C1263      C1272   1.401       .  A
N1264      O1279   1.262       .  A
N1264      O1280   1.262       .  A
N1266      O1277   1.262       .  A
N1266      O1278   1.261       .  A
C1268      C1269   1.395       .  A
C1268      N1273   1.429       .  S
C1269      C1270   1.408       .  A
C1269      H1274   1.084       .  S
C1270      C1271   1.416       .  A
C1271      C1272   1.404       .  A
C1271      N1275   1.430       .  S
C1272      H1276   1.085       .  S
N1273      O1283   1.262       .  A
N1273      O1284   1.262       .  A
N1275      O1281   1.262       .  A
N1275      O1282   1.262       .  A
C1285      C1286   1.400       .  A
C1285      C1290   1.401       .  A
C1285      H1295   1.085       .  S
C1286      C1291   1.481       .  S
C1286      C1287   1.406       .  A
C1287      C1288   1.403       .  A
C1287      N1292   1.429       .  S
C1288      C1289   1.409       .  A
C1288      H1293   1.084       .  S
C1289      C1290   1.418       .  A
C1290      N1294   1.430       .  S
C1291      C1296   1.407       .  A
C1291      C1300   1.404       .  A
N1292      O1307   1.262       .  A
N1292      O1308   1.262       .  A
N1294      O1305   1.261       .  A
N1294      O1306   1.262       .  A
C1296      C1297   1.398       .  A
C1296      N1301   1.429       .  S
C1297      C1298   1.402       .  A
C1297      H1302   1.085       .  S
C1298      C1299   1.414       .  A
C1299      C1300   1.408       .  A
C1299      N1303   1.434       .  S
C1300      H1304   1.084       .  S
N1301      O1311   1.262       .  A
N1301      O1312   1.262       .  A
N1303      O1309   1.263       .  A
N1303      O1310   1.262       .  A
C1313      C1314   1.404       .  A
C1313      C1318   1.409       .  A
C1313      H1323   1.084       .  S
C1314      C1319   1.477       .  S
C1314      C1315   1.403       .  A
C1315      C1316   1.391       .  A
C1315      N1320   1.431       .  S
C1316      C1317   1.409       .  A
C1316      H1321   1.084       .  S
C1317      C1318   1.415       .  A
C1318      N1322   1.429       .  S
C1319      C1324   1.409       .  A
C1319      C1328   1.398       .  A
N1320      O1335   1.262       .  A
N1320      O1336   1.262       .  A
N1322      O1333   1.262       .  A
N1322      O1334   1.262       .  A
C1324      C1325   1.402       .  A
C1324      N1329   1.429       .  S
C1325      C1326   1.405       .  A
C1325      H1330   1.084       .  S
C1326      C1327   1.416       .  A
C1327      C1328   1.399       .  A
C1327      N1331   1.430       .  S
C1328      H1332   1.085       .  S
N1329      O1339   1.262       .  A
N1329      O1340   1.262       .  A
N1331      O1337   1.262       .  A
N1331      O1338   1.262       .  A
C1341      C1342   1.398       .  A
C1341      C1346   1.402       .  A
C1341      H1351   1.084       .  S
C1342      C1347   1.478       .  S
C1342      C1343   1.407       .  A
C1343      C1344   1.402       .  A
C1343      N1348   1.429       .  S
C1344      C1345   1.407       .  A
C1344      H1349   1.084       .  S
C1345      C1346   1.419       .  A
C1346      N1350   1.431       .  S
C1347      C1352   1.407       .  A
C1347      C1356   1.398       .  A
N1348      O1363   1.262       .  A
N1348      O1364   1.262       .  A
N1350      O1361   1.262       .  A
N1350      O1362   1.262       .  A
C1352      C1353   1.403       .  A
C1352      N1357   1.430       .  S
C1353      C1354   1.408       .  A
C1353      H1358   1.084       .  S
C1354      C1355   1.418       .  A
C1355      C1356   1.400       .  A
C1355      N1359   1.431       .  S
C1356      H1360   1.085       .  S
N1357      O1367   1.262       .  A
N1357      O1368   1.262       .  A
N1359      O1365   1.262       .  A
N1359      O1366   1.262       .  A
C1369      C1370   1.403       .  A
C1369      C1374   1.401       .  A
C1369      H1379   1.085       .  S
C1370      C1375   1.489       .  S
C1370      C1371   1.412       .  A
C1371      C1372   1.401       .  A
C1371      N1376   1.431       .  S
C1372      C1373   1.406       .  A
C1372      H1377   1.084       .  S
C1373      C1374   1.416       .  A
C1374      N1378   1.429       .  S
C1375      C1380   1.411       .  A
C1375      C1384   1.403       .  A
N1376      O1391   1.262       .  A
N1376      O1392   1.262       .  A
N1378      O1389   1.262       .  A
N1378      O1390   1.261       .  A
C1380      C1381   1.402       .  A
C1380      N1385   1.430       .  S
C1381      C1382   1.406       .  A
C1381      H1386   1.084       .  S
C1382      C1383   1.416       .  A
C1383      C1384   1.401       .  A
C1383      N1387   1.430       .  S
C1384      H1388   1.084       .  S
N1385      O1395   1.262       .  A
N1385      O1396   1.262       .  A
N1387      O1393   1.261       .  A
N1387      O1394   1.262       .  A
C1397      C1398   1.403       .  A
C1397      C1402   1.398       .  A
C1397      H1407   1.085       .  S
C1398      C1403   1.480       .  S
C1398      C1399   1.406       .  A
C1399      C1400   1.401       .  A
C1399      N1404   1.429       .  S
C1400      C1401   1.408       .  A
C1400      H1405   1.084       .  S
C1401      C1402   1.413       .  A
C1402      N1406   1.429       .  S
C1403      C1408   1.409       .  A
C1403      C1412   1.400       .  A
N1404      O1419   1.262       .  A
N1404      O1420   1.262       .  A
N1406      O1417   1.262       .  A
N1406      O1418   1.262       .  A
C1408      C1409   1.401       .  A
C1408      N1413   1.434       .  S
C1409      C1410   1.407       .  A
C1409      H1414   1.084       .  S
C1410      C1411   1.418       .  A
C1411      C1412   1.401       .  A
C1411      N1415   1.430       .  S
C1412      H1416   1.084       .  S
N1413      O1423   1.262       .  A
N1413      O1424   1.263       .  A
N1415      O1421   1.262       .  A
N1415      O1422   1.262       .  A
C1425      C1426   1.401       .  A
C1425      C1430   1.397       .  A
C1425      H1435   1.085       .  S
C1426      C1431   1.480       .  S
C1426      C1427   1.411       .  A
C1427      C1428   1.402       .  A
C1427      N1432   1.434       .  S
C1428      C1429   1.406       .  A
C1428      H1433   1.084       .  S
C1429      C1430   1.412       .  A
C1430      N1434   1.429       .  S
C1431      C1436   1.411       .  A
C1431      C1440   1.400       .  A
N1432      O1447   1.262       .  A
N1432      O1448   1.262       .  A
N1434      O1445   1.262       .  A
N1434      O1446   1.262       .  A
C1436      C1437   1.402       .  A
C1436      N1441   1.433       .  S
C1437      C1438   1.406       .  A
C1437      H1442   1.084       .  S
C1438      C1439   1.416       .  A
C1439      C1440   1.400       .  A
C1439      N1443   1.432       .  S
C1440      H1444   1.084       .  S
N1441      O1451   1.262       .  A
N1441      O1452   1.262       .  A
N1443      O1449   1.262       .  A
N1443      O1450   1.262       .  A
C1453      C1454   1.408       .  A
C1453      C1458   1.405       .  A
C1453      H1463   1.084       .  S
C1454      C1459   1.489       .  S
C1454      C1455   1.411       .  A
C1455      C1456   1.397       .  A
C1455      N1460   1.431       .  S
C1456      C1457   1.402       .  A
C1456      H1461   1.085       .  S
C1457      C1458   1.410       .  A
C1458      N1462   1.431       .  S
C1459      C1464   1.413       .  A
C1459      C1468   1.405       .  A
N1460      O1475   1.262       .  A
N1460      O1476   1.262       .  A
N1462      O1473   1.262       .  A
N1462      O1474   1.262       .  A
C1464      C1465   1.405       .  A
C1464      N1469   1.431       .  S
C1465      C1466   1.404       .  A
C1465      H1470   1.085       .  S
C1466      C1467   1.409       .  A
C1467      C1468   1.398       .  A
C1467      N1471   1.430       .  S
C1468      H1472   1.085       .  S
N1469      O1479   1.262       .  A
N1469      O1480   1.262       .  A
N1471      O1477   1.262       .  A
N1471      O1478   1.262       .  A
C1481      C1482   1.406       .  A
C1481      C1486   1.404       .  A
C1481      H1491   1.084       .  S
C1482      C1487   1.479       .  S
C1482      C1483   1.407       .  A
C1483      C1484   1.393       .  A
C1483      N1488   1.431       .  S
C1484      C1485   1.404       .  A
C1484      H1489   1.085       .  S
C1485      C1486   1.409       .  A
C1486      N1490   1.429       .  S
C1487      C1492   1.406       .  A
C1487      C1496   1.401       .  A
N1488      O1503   1.262       .  A
N1488      O1504   1.262       .  A
N1490      O1501   1.262       .  A
N1490      O1502   1.262       .  A
C1492      C1493   1.400       .  A
C1492      N1497   1.428       .  S
C1493      C1494   1.407       .  A
C1493      H1498   1.084       .  S
C1494      C1495   1.416       .  A
C1495      C1496   1.395       .  A
C1495      N1499   1.430       .  S
C1496      H1500   1.084       .  S
N1497      O1507   1.262       .  A
N1497      O1508   1.262       .  A
N1499      O1505   1.262       .  A
N1499      O1506   1.262       .  A
C1509      C1510   1.398       .  A
C1509      C1514   1.402       .  A
C1509      H1519   1.085       .  S
C1510      C1515   1.486       .  S
C1510      C1511   1.409       .  A
C1511      C1512   1.404       .  A
C1511      N1516   1.430       .  S
C1512      C1513   1.407       .  A
C1512      H1517   1.084       .  S
C1513      C1514   1.424       .  A
C1514      N1518   1.434       .  S
C1515      C1520   1.409       .  A
C1515      C1524   1.402       .  A
N1516      O1531   1.262       .  A
N1516      O1532   1.262       .  A
N1518      O1529   1.262       .  A
N1518      O1530   1.262       .  A
C1520      C1521   1.401       .  A
C1520      N1525   1.428       .  S
C1521      C1522   1.407       .  A
C1521      H1526   1.084       .  S
C1522      C1523   1.417       .  A
C1523      C1524   1.401       .  A
C1523      N1527   1.430       .  S
C1524      H1528   1.085       .  S
N1525      O1535   1.262       .  A
N1525      O1536   1.262       .  A
N1527      O1533   1.262       .  A
N1527      O1534   1.262       .  A
C1537      C1538   1.402       .  A
C1537      C1542   1.400       .  A
C1537      H1547   1.085       .  S
C1538      C1543   1.490       .  S
C1538      C1539   1.411       .  A
C1539      C1540   1.406       .  A
C1539      N1544   1.429       .  S
C1540      C1541   1.406       .  A
C1540      H1545   1.084       .  S
C1541      C1542   1.414       .  A
C1542      N1546   1.431       .  S
C1543      C1548   1.409       .  A
C1543      C1552   1.404       .  A
N1544      O1559   1.262       .  A
N1544      O1560   1.262       .  A
N1546      O1557   1.262       .  A
N1546      O1558   1.262       .  A
C1548      C1549   1.400       .  A
C1548      N1553   1.430       .  S
C1549      C1550   1.408       .  A
C1549      H1554   1.084       .  S
C1550      C1551   1.417       .  A
C1551      C1552   1.406       .  A
C1551      N1555   1.429       .  S
C1552      H1556   1.084       .  S
N1553      O1563   1.262       .  A
N1553      O1564   1.262       .  A
N1555      O1561   1.262       .  A
N1555      O1562   1.262       .  A
C1565      C1566   1.405       .  A
C1565      C1570   1.396       .  A
C1565      H1575   1.099       .  S
C1566      C1571   1.493       .  S
C1566      C1567   1.418       .  A
C1567      C1568   1.400       .  A
C1567      N1572   1.431       .  S
C1568      C1569   1.398       .  A
C1568      H1573   1.111       .  S
C1569      C1570   1.410       .  A
C1570      N1574   1.430       .  S
C1571      C1576   1.416       .  A
C1571      C1580   1.404       .  A
N1572      O1587   1.262       .  A
N1572      O1588   1.262       .  A
N1574      O1585   1.262       .  A
N1574      O1586   1.262       .  A
C1576      C1577   1.400       .  A
C1576      N1581   1.433       .  S
C1577      C1578   1.404       .  A
C1577      H1582   1.087       .  S
C1578      C1579   1.415       .  A
C1579      C1580   1.400       .  A
C1579      N1583   1.430       .  S
C1580      H1584   1.088       .  S
N1581      O1591   1.263       .  A
N1581      O1592   1.262       .  A
N1583      O1589   1.262       .  A
N1583      O1590   1.262       .  A
C1593      C1594   1.399       .  A
C1593      C1598   1.398       .  A
C1593      H1603   1.122       .  S
C1594      C1599   1.475       .  S
C1594      C1595   1.410       .  A
C1595      C1596   1.394       .  A
C1595      N1600   1.428       .  S
C1596      C1597   1.397       .  A
C1596      H1601   1.129       .  S
C1597      C1598   1.411       .  A
C1598      N1602   1.431       .  S
C1599      C1604   1.406       .  A
C1599      C1608   1.399       .  A
N1600      O1615   1.262       .  A
N1600      O1616   1.262       .  A
N1602      O1613   1.262       .  A
N1602      O1614   1.262       .  A
C1604      C1605   1.398       .  A
C1604      N1609   1.430       .  S
C1605      C1606   1.407       .  A
C1605      H1610   1.085       .  S
C1606      C1607   1.418       .  A
C1607      C1608   1.402       .  A
C1607      N1611   1.429       .  S
C1608      H1612   1.086       .  S
N1609      O1619   1.262       .  A
N1609      O1620   1.262       .  A
N1611      O1617   1.262       .  A
N1611      O1618   1.262       .  A
C1621      C1622   1.399       .  A
C1621      C1626   1.397       .  A
C1621      H1631   1.085       .  S
C1622      C1627   1.476       .  S
C1622      C1623   1.407       .  A
C1623      C1624   1.402       .  A
C1623      N1628   1.428       .  S
C1624      C1625   1.406       .  A
C1624      H1629   1.084       .  S
C1625      C1626   1.415       .  A
C1626      N1630   1.430       .  S
C1627      C1632   1.405       .  A
C1627      C1636   1.400       .  A
N1628      O1643   1.262       .  A
N1628      O1644   1.262       .  A
N1630      O1641   1.262       .  A
N1630      O1642   1.262       .  A
C1632      C1633   1.399       .  A
C1632      N1637   1.430       .  S
C1633      C1634   1.409       .  A
C1633      H1638   1.084       .  S
C1634      C1635   1.417       .  A
C1635      C1636   1.401       .  A
C1635      N1639   1.429       .  S
C1636      H1640   1.085       .  S
N1637      O1647   1.262       .  A
N1637      O1648   1.262       .  A
N1639      O1645   1.262       .  A
N1639      O1646   1.262       .  A
C1649      C1650   1.408       .  A
C1649      C1654   1.407       .  A
C1649      H1659   1.084       .  S
C1650      C1655   1.491       .  S
C1650      C1651   1.409       .  A
C1651      C1652   1.397       .  A
C1651      N1656   1.431       .  S
C1652      C1653   1.407       .  A
C1652      H1657   1.085       .  S
C1653      C1654   1.413       .  A
C1654      N1658   1.431       .  S
C1655      C1660   1.409       .  A
C1655      C1664   1.407       .  A
N1656      O1671   1.262       .  A
N1656      O1672   1.262       .  A
N1658      O1669   1.262       .  A
N1658      O1670   1.262       .  A
C1660      C1661   1.401       .  A
C1660      N1665   1.430       .  S
C1661      C1662   1.408       .  A
C1661      H1666   1.085       .  S
C1662      C1663   1.412       .  A
C1663      C1664   1.402       .  A
C1663      N1667   1.429       .  S
C1664      H1668   1.085       .  S
N1665      O1675   1.262       .  A
N1665      O1676   1.262       .  A
N1667      O1673   1.262       .  A
N1667      O1674   1.262       .  A
C1677      C1678   1.400       .  A
C1677      C1682   1.400       .  A
C1677      H1687   1.084       .  S
C1678      C1683   1.480       .  S
C1678      C1679   1.415       .  A
C1679      C1680   1.401       .  A
C1679      N1684   1.436       .  S
C1680      C1681   1.399       .  A
C1680      H1685   1.084       .  S
C1681      C1682   1.412       .  A
C1682      N1686   1.431       .  S
C1683      C1688   1.409       .  A
C1683      C1692   1.405       .  A
N1684      O1699   1.263       .  A
N1684      O1700   1.262       .  A
N1686      O1697   1.262       .  A
N1686      O1698   1.262       .  A
C1688      C1689   1.394       .  A
C1688      N1693   1.434       .  S
C1689      C1690   1.405       .  A
C1689      H1694   1.085       .  S
C1690      C1691   1.409       .  A
C1691      C1692   1.406       .  A
C1691      N1695   1.428       .  S
C1692      H1696   1.084       .  S
N1693      O1703   1.262       .  A
N1693      O1704   1.262       .  A
N1695      O1701   1.262       .  A
N1695      O1702   1.262       .  A
C1705      C1706   1.402       .  A
C1705      C1710   1.401       .  A
C1705      H1715   1.084       .  S
C1706      C1711   1.480       .  S
C1706      C1707   1.406       .  A
C1707      C1708   1.398       .  A
C1707      N1712   1.429       .  S
C1708      C1709   1.407       .  A
C1708      H1713   1.084       .  S
C1709      C1710   1.414       .  A
C1710      N1714   1.427       .  S
C1711      C1716   1.406       .  A
C1711      C1720   1.402       .  A
N1712      O1727   1.262       .  A
N1712      O1728   1.262       .  A
N1714      O1725   1.262       .  A
N1714      O1726   1.262       .  A
C1716      C1717   1.396       .  A
C1716      N1721   1.429       .  S
C1717      C1718   1.407       .  A
C1717      H1722   1.084       .  S
C1718      C1719   1.416       .  A
C1719      C1720   1.403       .  A
C1719      N1723   1.429       .  S
C1720      H1724   1.084       .  S
N1721      O1731   1.262       .  A
N1721      O1732   1.262       .  A
N1723      O1729   1.262       .  A
N1723      O1730   1.262       .  A
C1733      C1734   1.405       .  A
C1733      C1738   1.404       .  A
C1733      H1743   1.085       .  S
C1734      C1739   1.483       .  S
C1734      C1735   1.407       .  A
C1735      C1736   1.401       .  A
C1735      N1740   1.431       .  S
C1736      C1737   1.406       .  A
C1736      H1741   1.085       .  S
C1737      C1738   1.412       .  A
C1738      N1742   1.431       .  S
C1739      C1744   1.407       .  A
C1739      C1748   1.403       .  A
N1740      O1755   1.262       .  A
N1740      O1756   1.262       .  A
N1742      O1753   1.262       .  A
N1742      O1754   1.262       .  A
C1744      C1745   1.402       .  A
C1744      N1749   1.431       .  S
C1745      C1746   1.409       .  A
C1745      H1750   1.084       .  S
C1746      C1747   1.416       .  A
C1747      C1748   1.402       .  A
C1747      N1751   1.430       .  S
C1748      H1752   1.085       .  S
N1749      O1759   1.262       .  A
N1749      O1760   1.262       .  A
N1751      O1757   1.262       .  A
N1751      O1758   1.262       .  A
C1761      C1762   1.402       .  A
C1761      C1766   1.399       .  A
C1761      H1771   1.085       .  S
C1762      C1767   1.486       .  S
C1762      C1763   1.410       .  A
C1763      C1764   1.405       .  A
C1763      N1768   1.429       .  S
C1764      C1765   1.406       .  A
C1764      H1769   1.084       .  S
C1765      C1766   1.412       .  A
C1766      N1770   1.430       .  S
C1767      C1772   1.407       .  A
C1767      C1776   1.401       .  A
N1768      O1783   1.262       .  A
N1768      O1784   1.262       .  A
N1770      O1781   1.262       .  A
N1770      O1782   1.262       .  A
C1772      C1773   1.399       .  A
C1772      N1777   1.429       .  S
C1773      C1774   1.409       .  A
C1773      H1778   1.084       .  S
C1774      C1775   1.423       .  A
C1775      C1776   1.407       .  A
C1775      N1779   1.436       .  S
C1776      H1780   1.084       .  S
N1777      O1787   1.262       .  A
N1777      O1788   1.262       .  A
N1779      O1785   1.262       .  A
N1779      O1786   1.262       .  A
C1789      C1790   1.401       .  A
C1789      C1794   1.401       .  A
C1789      H1799   1.084       .  S
C1790      C1795   1.478       .  S
C1790      C1791   1.409       .  A
C1791      C1792   1.402       .  A
C1791      N1796   1.430       .  S
C1792      C1793   1.403       .  A
C1792      H1797   1.084       .  S
C1793      C1794   1.412       .  A
C1794      N1798   1.430       .  S
C1795      C1800   1.408       .  A
C1795      C1804   1.398       .  A
N1796      O1811   1.262       .  A
N1796      O1812   1.262       .  A
N1798      O1809   1.262       .  A
N1798      O1810   1.262       .  A
C1800      C1801   1.403       .  A
C1800      N1805   1.430       .  S
C1801      C1802   1.408       .  A
C1801      H1806   1.084       .  S
C1802      C1803   1.419       .  A
C1803      C1804   1.399       .  A
C1803      N1807   1.430       .  S
C1804      H1808   1.084       .  S
N1805      O1815   1.262       .  A
N1805      O1816   1.262       .  A
N1807      O1813   1.262       .  A
N1807      O1814   1.262       .  A
C1817      C1818   1.403       .  A
C1817      C1822   1.401       .  A
C1817      H1827   1.085       .  S
C1818      C1823   1.487       .  S
C1818      C1819   1.410       .  A
C1819      C1820   1.403       .  A
C1819      N1824   1.430       .  S
C1820      C1821   1.406       .  A
C1820      H1825   1.085       .  S
C1821      C1822   1.414       .  A
C1822      N1826   1.429       .  S
C1823      C1828   1.410       .  A
C1823      C1832   1.401       .  A
N1824      O1839   1.262       .  A
N1824      O1840   1.262       .  A
N1826      O1837   1.262       .  A
N1826      O1838   1.262       .  A
C1828      C1829   1.403       .  A
C1828      N1833   1.430       .  S
C1829      C1830   1.407       .  A
C1829      H1834   1.084       .  S
C1830      C1831   1.419       .  A
C1831      C1832   1.401       .  A
C1831      N1835   1.430       .  S
C1832      H1836   1.085       .  S
N1833      O1843   1.262       .  A
N1833      O1844   1.262       .  A
N1835      O1841   1.262       .  A
N1835      O1842   1.262       .  A
C1845      C1846   1.402       .  A
C1845      C1850   1.406       .  A
C1845      H1855   1.084       .  S
C1846      C1851   1.479       .  S
C1846      C1847   1.407       .  A
C1847      C1848   1.397       .  A
C1847      N1852   1.431       .  S
C1848      C1849   1.406       .  A
C1848      H1853   1.084       .  S
C1849      C1850   1.417       .  A
C1850      N1854   1.431       .  S
C1851      C1856   1.409       .  A
C1851      C1860   1.396       .  A
N1852      O1867   1.262       .  A
N1852      O1868   1.262       .  A
N1854      O1865   1.262       .  A
N1854      O1866   1.262       .  A
C1856      C1857   1.408       .  A
C1856      N1861   1.428       .  S
C1857      C1858   1.407       .  A
C1857      H1862   1.084       .  S
C1858      C1859   1.418       .  A
C1859      C1860   1.393       .  A
C1859      N1863   1.431       .  S
C1860      H1864   1.085       .  S
N1861      O1871   1.262       .  A
N1861      O1872   1.262       .  A
N1863      O1869   1.261   1_545  A
N1863      O1870   1.262       .  A
C1873      C1874   1.400       .  A
C1873      C1878   1.398       .  A
C1873      H1883   1.085       .  S
C1874      C1879   1.487       .  S
C1874      C1875   1.412       .  A
C1875      C1876   1.402       .  A
C1875      N1880   1.430       .  S
C1876      C1877   1.405       .  A
C1876      H1881   1.085       .  S
C1877      C1878   1.418       .  A
C1878      N1882   1.429       .  S
C1879      C1884   1.415       .  A
C1879      C1888   1.401       .  A
N1880      O1895   1.262       .  A
N1880      O1896   1.262       .  A
N1882      O1893   1.261       .  A
N1882      O1894   1.262       .  A
C1884      C1885   1.405       .  A
C1884      N1889   1.430       .  S
C1885      C1886   1.401       .  A
C1885      H1890   1.085       .  S
C1886      C1887   1.412       .  A
C1887      C1888   1.396       .  A
C1887      N1891   1.430       .  S
C1888      H1892   1.085       .  S
N1889      O1899   1.262       .  A
N1889      O1900   1.262       .  A
N1891      O1897   1.262   1_545  A
N1891      O1898   1.261   1_545  A
C1901      C1902   1.399       .  A
C1901      C1906   1.391       .  A
C1901      H1911   1.085       .  S
C1902      C1907   1.477       .  S
C1902      C1903   1.410       .  A
C1903      C1904   1.402       .  A
C1903      N1908   1.429       .  S
C1904      C1905   1.404       .  A
C1904      H1909   1.084       .  S
C1905      C1906   1.414       .  A
C1906      N1910   1.431       .  S
C1907      C1912   1.408       .  A
C1907      C1916   1.404       .  A
N1908      O1923   1.262       .  A
N1908      O1924   1.262       .  A
N1910      O1921   1.262       .  A
N1910      O1922   1.262       .  A
C1912      C1913   1.390       .  A
C1912      N1917   1.432       .  S
C1913      C1914   1.406       .  A
C1913      H1918   1.085       .  S
C1914      C1915   1.414       .  A
C1915      C1916   1.404       .  A
C1915      N1919   1.431       .  S
C1916      H1920   1.084       .  S
N1917      O1927   1.262       .  A
N1917      O1928   1.262       .  A
N1919      O1925   1.262       .  A
N1919      O1926   1.262       .  A
C1929      C1930   1.400       .  A
C1929      C1934   1.399       .  A
C1929      H1939   1.085       .  S
C1930      C1935   1.473       .  S
C1930      C1931   1.404       .  A
C1931      C1932   1.396       .  A
C1931      N1936   1.429       .  S
C1932      C1933   1.408       .  A
C1932      H1937   1.084       .  S
C1933      C1934   1.416       .  A
C1934      N1938   1.430       .  S
C1935      C1940   1.404       .  A
C1935      C1944   1.403       .  A
N1936      O1951   1.262       .  A
N1936      O1952   1.262       .  A
N1938      O1949   1.262       .  A
N1938      O1950   1.262       .  A
C1940      C1941   1.393       .  A
C1940      N1945   1.430       .  S
C1941      C1942   1.406       .  A
C1941      H1946   1.084       .  S
C1942      C1943   1.412       .  A
C1943      C1944   1.403       .  A
C1943      N1947   1.428       .  S
C1944      H1948   1.084       .  S
N1945      O1955   1.262       .  A
N1945      O1956   1.262       .  A
N1947      O1953   1.262       .  A
N1947      O1954   1.262       .  A
C1957      C1958   1.407       .  A
C1957      C1962   1.401       .  A
C1957      H1967   1.084       .  S
C1958      C1963   1.494       .  S
C1958      C1959   1.414       .  A
C1959      C1960   1.403       .  A
C1959      N1964   1.431       .  S
C1960      C1961   1.402       .  A
C1960      H1965   1.085       .  S
C1961      C1962   1.410       .  A
C1962      N1966   1.431       .  S
C1963      C1968   1.413       .  A
C1963      C1972   1.409       .  A
N1964      O1979   1.262       .  A
N1964      O1980   1.262       .  A
N1966      O1977   1.262       .  A
N1966      O1978   1.262       .  A
C1968      C1969   1.401       .  A
C1968      N1973   1.432       .  S
C1969      C1970   1.404       .  A
C1969      H1974   1.085       .  S
C1970      C1971   1.408       .  A
C1971      C1972   1.404       .  A
C1971      N1975   1.429       .  S
C1972      H1976   1.085       .  S
N1973      O1983   1.262       .  A
N1973      O1984   1.262       .  A
N1975      O1981   1.262       .  A
N1975      O1982   1.262       .  A
C1985      C1986   1.400       .  A
C1985      C1990   1.400       .  A
C1985      H1995   1.084       .  S
C1986      C1991   1.478       .  S
C1986      C1987   1.405       .  A
C1987      C1988   1.403       .  A
C1987      N1992   1.428       .  S
C1988      C1989   1.408       .  A
C1988      H1993   1.084       .  S
C1989      C1990   1.416       .  A
C1990      N1994   1.433       .  S
C1991      C1996   1.404       .  A
C1991      C2000   1.405       .  A
N1992      O2007   1.262       .  A
N1992      O2008   1.262       .  A
N1994      O2005   1.263       .  A
N1994      O2006   1.262       .  A
C1996      C1997   1.393       .  A
C1996      N2001   1.429       .  S
C1997      C1998   1.407       .  A
C1997      H2002   1.085       .  S
C1998      C1999   1.412       .  A
C1999      C2000   1.408       .  A
C1999      N2003   1.428       .  S
C2000      H2004   1.084       .  S
N2001      O2011   1.262       .  A
N2001      O2012   1.262       .  A
N2003      O2009   1.262       .  A
N2003      O2010   1.262       .  A
C2013      C2014   1.403       .  A
C2013      C2018   1.402       .  A
C2013      H2023   1.085       .  S
C2014      C2019   1.487       .  S
C2014      C2015   1.408       .  A
C2015      C2016   1.402       .  A
C2015      N2020   1.429       .  S
C2016      C2017   1.408       .  A
C2016      H2021   1.084       .  S
C2017      C2018   1.418       .  A
C2018      N2022   1.431       .  S
C2019      C2024   1.410       .  A
C2019      C2028   1.402       .  A
N2020      O2035   1.262       .  A
N2020      O2036   1.262       .  A
N2022      O2033   1.262       .  A
N2022      O2034   1.262       .  A
C2024      C2025   1.400       .  A
C2024      N2029   1.430       .  S
C2025      C2026   1.405       .  A
C2025      H2030   1.084       .  S
C2026      C2027   1.417       .  A
C2027      C2028   1.402       .  A
C2027      N2031   1.429       .  S
C2028      H2032   1.084       .  S
N2029      O2039   1.262       .  A
N2029      O2040   1.262       .  A
N2031      O2037   1.262       .  A
N2031      O2038   1.262       .  A
C2041      C2042   1.409       .  A
C2041      C2046   1.406       .  A
C2041      H2051   1.084       .  S
C2042      C2047   1.492       .  S
C2042      C2043   1.414       .  A
C2043      C2044   1.397       .  A
C2043      N2048   1.434       .  S
C2044      C2045   1.400       .  A
C2044      H2049   1.086       .  S
C2045      C2046   1.407       .  A
C2046      N2050   1.429       .  S
C2047      C2052   1.412       .  A
C2047      C2056   1.403       .  A
N2048      O2063   1.263       .  A
N2048      O2064   1.262       .  A
N2050      O2061   1.262       .  A
N2050      O2062   1.262       .  A
C2052      C2053   1.407       .  A
C2052      N2057   1.430       .  S
C2053      C2054   1.408       .  A
C2053      H2058   1.085       .  S
C2054      C2055   1.415       .  A
C2055      C2056   1.395       .  A
C2055      N2059   1.430       .  S
C2056      H2060   1.085       .  S
N2057      O2067   1.262       .  A
N2057      O2068   1.262       .  A
N2059      O2065   1.262       .  A
N2059      O2066   1.262       .  A
C2069      C2070   1.403       .  A
C2069      C2074   1.399       .  A
C2069      H2079   1.085       .  S
C2070      C2075   1.479       .  S
C2070      C2071   1.406       .  A
C2071      C2072   1.398       .  A
C2071      N2076   1.431       .  S
C2072      C2073   1.409       .  A
C2072      H2077   1.084       .  S
C2073      C2074   1.412       .  A
C2074      N2078   1.429       .  S
C2075      C2080   1.410       .  A
C2075      C2084   1.405       .  A
N2076      O2091   1.262       .  A
N2076      O2092   1.262       .  A
N2078      O2089   1.262       .  A
N2078      O2090   1.261       .  A
C2080      C2081   1.394       .  A
C2080      N2085   1.432       .  S
C2081      C2082   1.401       .  A
C2081      H2086   1.085       .  S
C2082      C2083   1.409       .  A
C2083      C2084   1.402       .  A
C2083      N2087   1.430       .  S
C2084      H2088   1.084       .  S
N2085      O2095   1.262       .  A
N2085      O2096   1.262       .  A
N2087      O2093   1.262       .  A
N2087      O2094   1.262       .  A
C2097      C2098   1.402       .  A
C2097      C2102   1.405       .  A
C2097      H2107   1.084       .  S
C2098      C2103   1.479       .  S
C2098      C2099   1.405       .  A
C2099      C2100   1.399       .  A
C2099      N2104   1.429       .  S
C2100      C2101   1.408       .  A
C2100      H2105   1.084       .  S
C2101      C2102   1.415       .  A
C2102      N2106   1.430       .  S
C2103      C2108   1.407       .  A
C2103      C2112   1.397       .  A
N2104      O2119   1.262       .  A
N2104      O2120   1.262       .  A
N2106      O2117   1.262       .  A
N2106      O2118   1.262       .  A
C2108      C2109   1.405       .  A
C2108      N2113   1.428       .  S
C2109      C2110   1.408       .  A
C2109      H2114   1.084       .  S
C2110      C2111   1.420       .  A
C2111      C2112   1.398       .  A
C2111      N2115   1.430       .  S
C2112      H2116   1.085       .  S
N2113      O2123   1.262       .  A
N2113      O2124   1.261       .  A
N2115      O2121   1.262       .  A
N2115      O2122   1.262       .  A
C2125      C2126   1.399       .  A
C2125      C2130   1.402       .  A
C2125      H2135   1.084       .  S
C2126      C2131   1.474       .  S
C2126      C2127   1.406       .  A
C2127      C2128   1.397       .  A
C2127      N2132   1.429       .  S
C2128      C2129   1.405       .  A
C2128      H2133   1.084       .  S
C2129      C2130   1.416       .  A
C2130      N2134   1.429       .  S
C2131      C2136   1.410       .  A
C2131      C2140   1.399       .  A
N2132      O2147   1.262       .  A
N2132      O2148   1.262       .  A
N2134      O2145   1.262       .  A
N2134      O2146   1.262       .  A
C2136      C2137   1.405       .  A
C2136      N2141   1.430       .  S
C2137      C2138   1.403       .  A
C2137      H2142   1.085       .  S
C2138      C2139   1.406       .  A
C2139      C2140   1.396       .  A
C2139      N2143   1.427       .  S
C2140      H2144   1.085       .  S
N2141      O2151   1.262       .  A
N2141      O2152   1.262       .  A
N2143      O2149   1.261       .  A
N2143      O2150   1.262       .  A
C2153      C2154   1.402       .  A
C2153      C2158   1.401       .  A
C2153      H2163   1.084       .  S
C2154      C2159   1.491       .  S
C2154      C2155   1.413       .  A
C2155      C2156   1.407       .  A
C2155      N2160   1.429       .  S
C2156      C2157   1.402       .  A
C2156      H2161   1.084       .  S
C2157      C2158   1.414       .  A
C2158      N2162   1.430       .  S
C2159      C2164   1.410       .  A
C2159      C2168   1.403       .  A
N2160      O2175   1.262       .  A
N2160      O2176   1.262       .  A
N2162      O2173   1.262   1_455  A
N2162      O2174   1.261   1_455  A
C2164      C2165   1.405       .  A
C2164      N2169   1.430       .  S
C2165      C2166   1.409       .  A
C2165      H2170   1.084       .  S
C2166      C2167   1.418       .  A
C2167      C2168   1.403       .  A
C2167      N2171   1.430       .  S
C2168      H2172   1.084       .  S
N2169      O2179   1.262       .  A
N2169      O2180   1.262       .  A
N2171      O2177   1.262       .  A
N2171      O2178   1.262       .  A
C2181      C2182   1.399       .  A
C2181      C2186   1.402       .  A
C2181      H2191   1.084       .  S
C2182      C2187   1.468       .  S
C2182      C2183   1.404       .  A
C2183      C2184   1.391       .  A
C2183      N2188   1.430       .  S
C2184      C2185   1.407       .  A
C2184      H2189   1.084       .  S
C2185      C2186   1.418       .  A
C2186      N2190   1.431       .  S
C2187      C2192   1.401       .  A
C2187      C2196   1.401       .  A
N2188      O2203   1.262       .  A
N2188      O2204   1.262       .  A
N2190      O2201   1.262       .  A
N2190      O2202   1.262       .  A
C2192      C2193   1.391       .  A
C2192      N2197   1.430       .  S
C2193      C2194   1.409       .  A
C2193      H2198   1.084       .  S
C2194      C2195   1.413       .  A
C2195      C2196   1.404       .  A
C2195      N2199   1.429       .  S
C2196      H2200   1.084       .  S
N2197      O2207   1.262       .  A
N2197      O2208   1.262       .  A
N2199      O2205   1.262       .  A
N2199      O2206   1.262       .  A
C2209      C2210   1.398       .  A
C2209      C2214   1.397       .  A
C2209      H2219   1.085       .  S
C2210      C2215   1.470       .  S
C2210      C2211   1.407       .  A
C2211      C2212   1.400       .  A
C2211      N2216   1.430       .  S
C2212      C2213   1.405       .  A
C2212      H2217   1.084       .  S
C2213      C2214   1.415       .  A
C2214      N2218   1.434       .  S
C2215      C2220   1.405       .  A
C2215      C2224   1.399       .  A
N2216      O2231   1.262       .  A
N2216      O2232   1.262       .  A
N2218      O2229   1.263       .  A
N2218      O2230   1.262       .  A
C2220      C2221   1.396       .  A
C2220      N2225   1.430       .  S
C2221      C2222   1.409       .  A
C2221      H2226   1.084       .  S
C2222      C2223   1.415       .  A
C2223      C2224   1.399       .  A
C2223      N2227   1.428       .  S
C2224      H2228   1.084       .  S
N2225      O2235   1.262       .  A
N2225      O2236   1.262       .  A
N2227      O2233   1.262       .  A
N2227      O2234   1.262       .  A
C2237      C2238   1.408       .  A
C2237      C2242   1.405       .  A
C2237      H2247   1.084       .  S
C2238      C2243   1.493       .  S
C2238      C2239   1.410       .  A
C2239      C2240   1.400       .  A
C2239      N2244   1.430       .  S
C2240      C2241   1.406       .  A
C2240      H2245   1.084       .  S
C2241      C2242   1.411       .  A
C2242      N2246   1.429       .  S
C2243      C2248   1.410       .  A
C2243      C2252   1.409       .  A
N2244      O2259   1.262       .  A
N2244      O2260   1.262       .  A
N2246      O2257   1.262       .  A
N2246      O2258   1.262       .  A
C2248      C2249   1.398       .  A
C2248      N2253   1.430       .  S
C2249      C2250   1.405       .  A
C2249      H2254   1.085       .  S
C2250      C2251   1.410       .  A
C2251      C2252   1.407       .  A
C2251      N2255   1.429       .  S
C2252      H2256   1.084       .  S
N2253      O2263   1.262       .  A
N2253      O2264   1.262       .  A
N2255      O2261   1.262       .  A
N2255      O2262   1.262       .  A
C2265      C2266   1.405       .  A
C2265      C2270   1.399       .  A
C2265      H2275   1.085       .  S
C2266      C2271   1.482       .  S
C2266      C2267   1.409       .  A
C2267      C2268   1.397       .  A
C2267      N2272   1.431       .  S
C2268      C2269   1.406       .  A
C2268      H2273   1.085       .  S
C2269      C2270   1.409       .  A
C2270      N2274   1.429       .  S
C2271      C2276   1.411       .  A
C2271      C2280   1.403       .  A
N2272      O2287   1.262       .  A
N2272      O2288   1.262       .  A
N2274      O2285   1.261       .  A
N2274      O2286   1.262       .  A
C2276      C2277   1.397       .  A
C2276      N2281   1.430       .  S
C2277      C2278   1.403       .  A
C2277      H2282   1.085       .  S
C2278      C2279   1.411       .  A
C2279      C2280   1.399       .  A
C2279      N2283   1.428       .  S
C2280      H2284   1.085       .  S
N2281      O2291   1.262       .  A
N2281      O2292   1.262       .  A
N2283      O2289   1.262       .  A
N2283      O2290   1.262       .  A
C2293      C2294   1.405       .  A
C2293      C2298   1.410       .  A
C2293      H2303   1.084       .  S
C2294      C2299   1.490       .  S
C2294      C2295   1.411       .  A
C2295      C2296   1.399       .  A
C2295      N2300   1.435       .  S
C2296      C2297   1.409       .  A
C2296      H2301   1.084       .  S
C2297      C2298   1.418       .  A
C2298      N2302   1.433       .  S
C2299      C2304   1.415       .  A
C2299      C2308   1.403       .  A
N2300      O2315   1.262       .  A
N2300      O2316   1.263       .  A
N2302      O2313   1.262       .  A
N2302      O2314   1.263       .  A
C2304      C2305   1.403       .  A
C2304      N2309   1.437       .  S
C2305      C2306   1.405       .  A
C2305      H2310   1.084       .  S
C2306      C2307   1.416       .  A
C2307      C2308   1.405       .  A
C2307      N2311   1.429       .  S
C2308      H2312   1.084       .  S
N2309      O2319   1.263       .  A
N2309      O2320   1.263       .  A
N2311      O2317   1.262       .  A
N2311      O2318   1.262       .  A
C2321      C2322   1.401       .  A
C2321      C2326   1.397       .  A
C2321      H2331   1.085       .  S
C2322      C2327   1.487       .  S
C2322      C2323   1.413       .  A
C2323      C2324   1.405       .  A
C2323      N2328   1.429       .  S
C2324      C2325   1.403       .  A
C2324      H2329   1.085       .  S
C2325      C2326   1.414       .  A
C2326      N2330   1.433       .  S
C2327      C2332   1.410       .  A
C2327      C2336   1.404       .  A
N2328      O2343   1.262       .  A
N2328      O2344   1.262       .  A
N2330      O2341   1.262       .  A
N2330      O2342   1.261       .  A
C2332      C2333   1.395       .  A
C2332      N2337   1.432       .  S
C2333      C2334   1.407       .  A
C2333      H2338   1.084       .  S
C2334      C2335   1.418       .  A
C2335      C2336   1.408       .  A
C2335      N2339   1.433       .  S
C2336      H2340   1.084       .  S
N2337      O2347   1.262       .  A
N2337      O2348   1.262       .  A
N2339      O2345   1.262       .  A
N2339      O2346   1.262       .  A
C2349      C2350   1.408       .  A
C2349      C2354   1.406       .  A
C2349      H2359   1.084       .  S
C2350      C2355   1.491       .  S
C2350      C2351   1.413       .  A
C2351      C2352   1.397       .  A
C2351      N2356   1.433       .  S
C2352      C2353   1.401       .  A
C2352      H2357   1.086       .  S
C2353      C2354   1.410       .  A
C2354      N2358   1.432       .  S
C2355      C2360   1.411       .  A
C2355      C2364   1.406       .  A
N2356      O2371   1.262       .  A
N2356      O2372   1.262       .  A
N2358      O2369   1.262       .  A
N2358      O2370   1.262       .  A
C2360      C2361   1.402       .  A
C2360      N2365   1.431       .  S
C2361      C2362   1.408       .  A
C2361      H2366   1.085       .  S
C2362      C2363   1.412       .  A
C2363      C2364   1.400       .  A
C2363      N2367   1.430       .  S
C2364      H2368   1.085       .  S
N2365      O2375   1.262       .  A
N2365      O2376   1.262       .  A
N2367      O2373   1.262       .  A
N2367      O2374   1.262       .  A
C2377      C2378   1.400       .  A
C2377      C2382   1.400       .  A
C2377      H2387   1.085       .  S
C2378      C2383   1.469       .  S
C2378      C2379   1.402       .  A
C2379      C2380   1.395       .  A
C2379      N2384   1.429       .  S
C2380      C2381   1.407       .  A
C2380      H2385   1.084       .  S
C2381      C2382   1.413       .  A
C2382      N2386   1.429       .  S
C2383      C2388   1.402       .  A
C2383      C2392   1.400       .  A
N2384      O2399   1.262       .  A
N2384      O2400   1.262       .  A
N2386      O2397   1.262       .  A
N2386      O2398   1.262       .  A
C2388      C2389   1.393       .  A
C2388      N2393   1.430       .  S
C2389      C2390   1.408       .  A
C2389      H2394   1.084       .  S
C2390      C2391   1.415       .  A
C2391      C2392   1.401       .  A
C2391      N2395   1.429       .  S
C2392      H2396   1.085       .  S
N2393      O2403   1.262       .  A
N2393      O2404   1.262       .  A
N2395      O2401   1.261       .  A
N2395      O2402   1.262       .  A
C2405      C2406   1.405       .  A
C2405      C2410   1.406       .  A
C2405      H2415   1.084       .  S
C2406      C2411   1.486       .  S
C2406      C2407   1.409       .  A
C2407      C2408   1.399       .  A
C2407      N2412   1.434       .  S
C2408      C2409   1.409       .  A
C2408      H2413   1.083       .  S
C2409      C2410   1.414       .  A
C2410      N2414   1.430       .  S
C2411      C2416   1.413       .  A
C2411      C2420   1.399       .  A
N2412      O2427   1.262       .  A
N2412      O2428   1.262       .  A
N2414      O2425   1.262       .  A
N2414      O2426   1.262       .  A
C2416      C2417   1.406       .  A
C2416      N2421   1.435       .  S
C2417      C2418   1.407       .  A
C2417      H2422   1.084       .  S
C2418      C2419   1.419       .  A
C2419      C2420   1.400       .  A
C2419      N2423   1.431       .  S
C2420      H2424   1.085       .  S
N2421      O2431   1.262       .  A
N2421      O2432   1.262       .  A
N2423      O2429   1.262       .  A
N2423      O2430   1.262       .  A
C2433      C2434   1.400       .  A
C2433      C2438   1.400       .  A
C2433      H2443   1.085       .  S
C2434      C2439   1.478       .  S
C2434      C2435   1.407       .  A
C2435      C2436   1.399       .  A
C2435      N2440   1.430       .  S
C2436      C2437   1.406       .  A
C2436      H2441   1.084       .  S
C2437      C2438   1.417       .  A
C2438      N2442   1.431       .  S
C2439      C2444   1.407       .  A
C2439      C2448   1.401       .  A
N2440      O2455   1.262       .  A
N2440      O2456   1.262       .  A
N2442      O2453   1.262       .  A
N2442      O2454   1.262       .  A
C2444      C2445   1.399       .  A
C2444      N2449   1.431       .  S
C2445      C2446   1.406       .  A
C2445      H2450   1.084       .  S
C2446      C2447   1.417       .  A
C2447      C2448   1.401       .  A
C2447      N2451   1.433       .  S
C2448      H2452   1.085       .  S
N2449      O2459   1.262       .  A
N2449      O2460   1.262       .  A
N2451      O2457   1.262       .  A
N2451      O2458   1.262       .  A
C2461      C2462   1.399       .  A
C2461      C2466   1.401       .  A
C2461      H2471   1.084       .  S
C2462      C2467   1.476       .  S
C2462      C2463   1.407       .  A
C2463      C2464   1.398       .  A
C2463      N2468   1.431       .  S
C2464      C2465   1.407       .  A
C2464      H2469   1.084       .  S
C2465      C2466   1.418       .  A
C2466      N2470   1.429       .  S
C2467      C2472   1.409       .  A
C2467      C2476   1.399       .  A
N2468      O2483   1.262       .  A
N2468      O2484   1.262       .  A
N2470      O2481   1.262       .  A
N2470      O2482   1.262       .  A
C2472      C2473   1.402       .  A
C2472      N2477   1.430       .  S
C2473      C2474   1.402       .  A
C2473      H2478   1.084       .  S
C2474      C2475   1.414       .  A
C2475      C2476   1.400       .  A
C2475      N2479   1.434       .  S
C2476      H2480   1.084       .  S
N2477      O2487   1.262       .  A
N2477      O2488   1.262       .  A
N2479      O2485   1.262       .  A
N2479      O2486   1.261       .  A
C2489      C2490   1.403       .  A
C2489      C2494   1.400       .  A
C2489      H2499   1.085       .  S
C2490      C2495   1.478       .  S
C2490      C2491   1.406       .  A
C2491      C2492   1.399       .  A
C2491      N2496   1.429       .  S
C2492      C2493   1.406       .  A
C2492      H2497   1.084       .  S
C2493      C2494   1.410       .  A
C2494      N2498   1.430       .  S
C2495      C2500   1.405       .  A
C2495      C2504   1.402       .  A
N2496      O2511   1.262       .  A
N2496      O2512   1.262       .  A
N2498      O2509   1.262       .  A
N2498      O2510   1.262       .  A
C2500      C2501   1.396       .  A
C2500      N2505   1.430       .  S
C2501      C2502   1.410       .  A
C2501      H2506   1.084       .  S
C2502      C2503   1.416       .  A
C2503      C2504   1.403       .  A
C2503      N2507   1.429       .  S
C2504      H2508   1.084       .  S
N2505      O2515   1.262       .  A
N2505      O2516   1.262       .  A
N2507      O2513   1.262       .  A
N2507      O2514   1.261       .  A
C2517      C2518   1.397       .  A
C2517      C2522   1.392       .  A
C2517      H2527   1.085       .  S
C2518      C2523   1.475       .  S
C2518      C2519   1.411       .  A
C2519      C2520   1.404       .  A
C2519      N2524   1.430       .  S
C2520      C2521   1.403       .  A
C2520      H2525   1.084       .  S
C2521      C2522   1.413       .  A
C2522      N2526   1.430       .  S
C2523      C2528   1.409       .  A
C2523      C2532   1.400       .  A
N2524      O2539   1.262       .  A
N2524      O2540   1.262       .  A
N2526      O2537   1.262       .  A
N2526      O2538   1.261   1_545  A
C2528      C2529   1.398       .  A
C2528      N2533   1.433       .  S
C2529      C2530   1.408       .  A
C2529      H2534   1.084       .  S
C2530      C2531   1.417       .  A
C2531      C2532   1.401       .  A
C2531      N2535   1.428       .  S
C2532      H2536   1.084       .  S
N2533      O2543   1.262       .  A
N2533      O2544   1.262       .  A
N2535      O2541   1.262       .  A
N2535      O2542   1.262       .  A
