geometry optimzed in LAMMPS
_audit_creation_date              2020-12-01 
_audit_creation_method            'lammps2cif' 
_symmetry_space_group_name_H-M    'P1' 
_symmetry_Int_Tables_number       1 
_symmetry_cell_setting            triclinic 
loop_ 
_symmetry_equiv_pos_as_xyz 
  x,y,z 
_cell_length_a                    27.45668515 
_cell_length_b                    27.573638845194314 
_cell_length_c                    27.68295793430893 
_cell_angle_alpha                 89.87669106253615 
_cell_angle_beta                  89.95269101097911 
_cell_angle_gamma                 89.79794661192 
loop_ 
_atom_site_label 
_atom_site_type_symbol 
_atom_site_fract_x 
_atom_site_fract_y 
_atom_site_fract_z 
_atom_site_charge 
O1          O  0.05056017  0.28872946  0.45903491    -0.74400
O2          O  0.94309355  0.28622483  0.54770289    -0.74400
O3          O  0.04179535  0.28323125  0.55673457    -0.74500
O4          O  0.95217684  0.29167028  0.44934769    -0.74500
O5          O  0.95040612  0.21119137  0.44645826    -0.74500
O6          O  0.04066870  0.20248826  0.55183931    -0.74400
O7          O  0.94262035  0.20545510  0.54438456    -0.74400
O8          O  0.04836064  0.20807571  0.45396422    -0.74500
Ni9        Ni  0.99686966  0.29037645  0.50340326     1.25400
Ni10       Ni  0.99536092  0.20400329  0.49899597     1.25400
C11         C  0.06675450  0.24883393  0.44151408     0.87800
C12         C  0.92569334  0.24533292  0.56121172     0.87700
C13         C  0.05600128  0.24143166  0.57174204     0.87700
C14         C  0.93729025  0.25252942  0.42931801     0.87900
C15         C  0.30473071  0.22276545  0.27500726     0.02300
C16         C  0.26687874  0.22101387  0.30993889     0.02300
C17         C  0.23187255  0.25888299  0.31162469     0.02300
C18         C  0.23306443  0.29668314  0.27673371     0.02300
C19         C  0.26783054  0.29516077  0.23896810     0.02300
C20         C  0.30518621  0.25973155  0.23918679     0.02300
C21         C  0.78090841  0.23769317  0.71362268     0.02300
C22         C  0.74323372  0.20274747  0.71348721     0.02300
C23         C  0.70909071  0.20158385  0.75209064     0.02300
C24         C  0.70950840  0.23879570  0.78777438     0.02300
C25         C  0.74420707  0.27667966  0.78469849     0.02300
C26         C  0.78120376  0.27482051  0.74901574     0.02300
O27         O  0.46659245  0.05362424  0.29724927    -0.74400
O28         O  0.56707287  0.95799837  0.29178144    -0.74400
O29         O  0.56505290  0.05615865  0.28934323    -0.74500
O30         O  0.46828001  0.95499576  0.29832340    -0.74500
O31         O  0.46363316  0.95393480  0.21812334    -0.74500
O32         O  0.55755152  0.05500890  0.20935469    -0.74400
O33         O  0.56199375  0.95750937  0.21140467    -0.74400
O34         O  0.45955280  0.05196618  0.21708902    -0.74500
Ni35       Ni  0.51687096  0.00573650  0.29710377     1.25400
Ni36       Ni  0.51039796  0.00452331  0.21121058     1.25400
C37         C  0.44655298  0.06865376  0.25826548     0.87800
C38         C  0.58176820  0.94273609  0.25067777     0.84100
C39         C  0.57758982  0.07189449  0.24747676     0.87700
C40         C  0.45010135  0.93759882  0.25931220     0.87900
C41         C  0.72795706  0.79182525  0.23957186     0.02300
C42         C  0.72821017  0.76262011  0.19732564     0.02300
C43         C  0.76348912  0.72487195  0.19237793     0.02300
C44         C  0.79939839  0.71839726  0.22923553     0.02300
C45         C  0.80190575  0.75112932  0.26875838     0.02300
C46         C  0.76491103  0.78652645  0.27512454     0.02300
O47         O  0.05830422  0.78726067  0.45322295    -0.74400
O48         O  0.94799597  0.78772709  0.53518090    -0.74400
O49         O  0.04670624  0.78653803  0.54994898    -0.74500
O50         O  0.96075966  0.78556394  0.43915826    -0.74500
O51         O  0.95971646  0.70506944  0.44298831    -0.74500
O52         O  0.04914928  0.70586105  0.54849919    -0.74400
O53         O  0.95041670  0.70744988  0.54121452    -0.74400
O54         O  0.05836777  0.70650765  0.45136566    -0.74500
Ni55       Ni  0.00342872  0.78958983  0.49444993     1.25400
Ni56       Ni  0.00427624  0.70325234  0.49600572     1.25400
C57         C  0.07604301  0.74746919  0.43783467     0.87800
C58         C  0.93215340  0.74861567  0.55370423     0.87700
C59         C  0.06311803  0.74604449  0.56661527     0.87700
C60         C  0.94533655  0.74459327  0.42338620     0.87900
C61         C  0.20602298  0.70254119  0.75701816     0.02300
C62         C  0.21020470  0.73500693  0.71795490     0.02300
C63         C  0.24750362  0.77002792  0.71771105     0.02300
C64         C  0.28036729  0.77376438  0.75765200     0.02300
C65         C  0.27424122  0.74288785  0.79989047     0.02300
C66         C  0.23970616  0.70370471  0.79603818     0.02300
O67         O  0.53667695  0.94670274  0.77817710    -0.74400
O68         O  0.43924930  0.04226987  0.80118647    -0.74400
O69         O  0.43897401  0.94445798  0.78787029    -0.74500
O70         O  0.53725761  0.04344113  0.79035248    -0.74500
O71         O  0.52851465  0.05381845  0.71093349    -0.74500
O72         O  0.43102489  0.95440344  0.70823382    -0.74400
O73         O  0.43059398  0.05264096  0.72170723    -0.74400
O74         O  0.52940343  0.95653976  0.69859302    -0.74500
Ni75       Ni  0.48818962  0.99384482  0.79218413     1.25400
Ni76       Ni  0.47939819  0.00473903  0.70699259     1.25400
C77         C  0.54991337  0.93644099  0.73507444     0.87800
C78         C  0.41893748  0.06335761  0.76530990     0.87700
C79         C  0.41932205  0.93276346  0.74754826     0.87700
C80         C  0.54920045  0.06471026  0.75085866     0.87900
O81         O  0.27783611  0.44405357  0.96183657    -0.74400
O82         O  0.28353338  0.54506576  0.05716123    -0.74400
O83         O  0.28717596  0.44748069  0.05979308    -0.74500
O84         O  0.27536001  0.54153140  0.95917082    -0.74500
O85         O  0.19472694  0.53940466  0.96593252    -0.74500
O86         O  0.20644122  0.44564857  0.06813643    -0.74400
O87         O  0.20300892  0.54346497  0.06425007    -0.74400
O88         O  0.19702590  0.44193049  0.97040656    -0.74500
Ni89       Ni  0.28384148  0.49462431  0.00923507     1.25400
Ni90       Ni  0.19741325  0.49260292  0.01742378     1.25400
C91         C  0.23616644  0.42670679  0.95038479     0.87800
C92         C  0.24422477  0.56048631  0.07723522     0.87700
C93         C  0.24908933  0.43198653  0.08136232     0.87700
C94         C  0.23316070  0.55537822  0.94506178     0.87900
O95         O  0.70356735  0.45359705  0.93652454    -0.74400
O96         O  0.70210931  0.55345675  0.03375854    -0.74400
O97         O  0.69838160  0.55250223  0.93558874    -0.74500
O98         O  0.70853466  0.45451975  0.03487177    -0.74500
O99         O  0.78918692  0.45949740  0.03038112    -0.74500
O100        O  0.77917634  0.55645883  0.93170867    -0.74400
O101        O  0.78275482  0.55749371  0.02927480    -0.74400
O102        O  0.78450944  0.45779048  0.93276430    -0.74500
Ni103      Ni  0.70022312  0.50337032  0.98529909     1.25400
Ni104      Ni  0.78668122  0.50799145  0.98089643     1.25400
C105        C  0.74429291  0.43854384  0.91940982     0.87800
C106        C  0.74231675  0.57243889  0.04733704     0.87700
C107        C  0.73719517  0.57073923  0.91729335     0.87700
C108        C  0.75088696  0.44054862  0.04883378     0.87900
C109        C  0.70539603  0.79472520  0.73204342     0.02300
C110        C  0.74136752  0.79212006  0.69528405     0.02300
C111        C  0.77276736  0.75133163  0.69234390     0.02300
C112        C  0.77066362  0.71476261  0.72843735     0.02300
C113        C  0.73656212  0.71880216  0.76690524     0.02300
C114        C  0.70193007  0.75708495  0.76691223     0.02300
O115        O  0.72335082  0.95849607  0.42838460    -0.74400
O116        O  0.71210481  0.05404407  0.52990155    -0.74400
O117        O  0.72178752  0.05798981  0.43193808    -0.74500
O118        O  0.71281794  0.95560189  0.52555289    -0.74500
O119        O  0.79354011  0.95562274  0.53355673    -0.74500
O120        O  0.80267357  0.05780990  0.43934864    -0.74400
O121        O  0.79283539  0.05377155  0.53729236    -0.74400
O122        O  0.80416716  0.95873694  0.43636898    -0.74500
Ni123      Ni  0.71465753  0.00667989  0.47851000     1.25400
Ni124      Ni  0.80115179  0.00667486  0.48683329     1.25400
C125        C  0.76555510  0.94200016  0.41664014     0.87800
C126        C  0.75084919  0.06839975  0.55142796     0.87700
C127        C  0.76361198  0.07471311  0.42018381     0.87700
C128        C  0.75162229  0.93850746  0.54479953     0.87900
C129        C  0.74061189  0.20472961  0.21825801     0.02300
C130        C  0.77734037  0.20453087  0.25498109     0.02300
C131        C  0.81505445  0.24012946  0.25494388     0.02300
C132        C  0.81579035  0.27604869  0.21746580     0.02300
C133        C  0.77907735  0.27642001  0.18061722     0.02300
C134        C  0.74141743  0.24066770  0.18095862     0.02300
O135        O  0.95534385  0.55118666  0.27800234    -0.74400
O136        O  0.05360893  0.45301129  0.29478741    -0.74400
O137        O  0.05282233  0.55102922  0.29782108    -0.74500
O138        O  0.95600774  0.45370570  0.27569678    -0.74500
O139        O  0.97196240  0.45550583  0.19664997    -0.74500
O140        O  0.06848781  0.55350789  0.21871277    -0.74400
O141        O  0.06917958  0.45528218  0.21567426    -0.74400
O142        O  0.97130330  0.55338506  0.19904149    -0.74500
Ni143      Ni  0.00388371  0.50216172  0.28939042     1.25400
Ni144      Ni  0.02082078  0.50454667  0.20470787     1.25400
C145        C  0.94692014  0.56812101  0.23563214     0.87800
C146        C  0.07765172  0.43818921  0.25790729     0.87700
C147        C  0.07671705  0.56806058  0.26189388     0.87700
C148        C  0.94766284  0.43907877  0.23264989     0.87900
C149        C  0.29919664  0.78817386  0.25361965     0.02300
C150        C  0.29896962  0.74893715  0.21968820     0.02300
C151        C  0.26691735  0.70835951  0.22710440     0.02300
C152        C  0.23414356  0.70828148  0.26747510     0.02300
C153        C  0.23415990  0.74820474  0.29999557     0.02300
C154        C  0.26535572  0.78835950  0.29246704     0.02300
O155        O  0.29735614  0.94902193  0.46413149    -0.74400
O156        O  0.29012319  0.03811365  0.57019830    -0.74400
O157        O  0.28904718  0.94025373  0.56102500    -0.74500
O158        O  0.29792720  0.04766867  0.47209763    -0.74500
O159        O  0.21714044  0.04862566  0.46513276    -0.74500
O160        O  0.20825776  0.94224956  0.55488724    -0.74400
O161        O  0.20949604  0.04037765  0.56375607    -0.74400
O162        O  0.21647178  0.95021374  0.45748623    -0.74500
Ni163      Ni  0.29643588  0.99384578  0.51701648     1.25400
Ni164      Ni  0.20996171  0.99555683  0.51006715     1.25400
C165        C  0.25820999  0.93392735  0.44420506     0.87800
C166        C  0.24880434  0.05383991  0.58497854     0.87700
C167        C  0.24707811  0.92371541  0.57286099     0.87700
C168        C  0.25897997  0.06563607  0.45354923     0.87900
C169        C  0.18566386  0.22980637  0.73807210     0.02300
C170        C  0.22525532  0.19613407  0.74014252     0.02300
C171        C  0.26173326  0.20154601  0.77618286     0.02300
C172        C  0.25870729  0.23898915  0.81094012     0.02300
C173        C  0.22113014  0.27429239  0.80738009     0.02300
C174        C  0.18363379  0.26923519  0.77190868     0.02300
O175        O  0.03222743  0.44608045  0.70543928    -0.74400
O176        O  0.93891295  0.55008162  0.69890498    -0.74400
O177        O  0.03778053  0.54455660  0.70527113    -0.74500
O178        O  0.93418742  0.45160449  0.69913300    -0.74500
O179        O  0.92981346  0.45230979  0.77951147    -0.74500
O180        O  0.03206541  0.54574921  0.78563538    -0.74400
O181        O  0.93377526  0.55071958  0.77937481    -0.74400
O182        O  0.02752500  0.44731579  0.78551108    -0.74500
Ni183      Ni  0.98595737  0.49826165  0.69929774     1.25400
Ni184      Ni  0.98058224  0.49914383  0.78532983     1.25400
C185        C  0.04489383  0.42885353  0.74656751     0.87800
C186        C  0.92088193  0.56723732  0.73803849     0.87700
C187        C  0.05218972  0.56006559  0.74644311     0.87700
C188        C  0.91594630  0.43562874  0.73862271     0.87900
O189        O  0.53978336  0.29277524  0.94722860    -0.74400
O190        O  0.45288734  0.29479521  0.05691544    -0.74400
O191        O  0.55117340  0.29342259  0.04470508    -0.74500
O192        O  0.44079424  0.29490897  0.95940919    -0.74500
O193        O  0.43979328  0.21432946  0.95954527    -0.74500
O194        O  0.54995056  0.21249758  0.04533747    -0.74400
O195        O  0.45163666  0.21407435  0.05666878    -0.74400
O196        O  0.53884604  0.21194491  0.94853367    -0.74500
Ni197      Ni  0.49614445  0.29686900  0.00195321     1.25400
Ni198      Ni  0.49492880  0.21039193  0.00245339     1.25400
C199        C  0.55464055  0.25182523  0.93075724     0.87800
C200        C  0.43761590  0.25452350  0.07457883     0.87700
C201        C  0.56870779  0.25273358  0.05889673     0.87700
C202        C  0.42164508  0.25500093  0.94556747     0.87900
O203        O  0.54970891  0.72638585  0.94064276    -0.74400
O204        O  0.46396664  0.71807898  0.04926469    -0.74400
O205        O  0.45165674  0.71981683  0.95145463    -0.74500
O206        O  0.56196534  0.72868919  0.03874929    -0.74500
O207        O  0.55492813  0.80931265  0.03824028    -0.74500
O208        O  0.44672960  0.80005854  0.95305502    -0.74400
O209        O  0.45688118  0.79865362  0.05040085    -0.74400
O210        O  0.54409405  0.80711548  0.94065687    -0.74500
Ni211      Ni  0.50721430  0.72032912  0.99500197     1.25400
Ni212      Ni  0.50043054  0.80657458  0.99561608     1.25400
C213        C  0.56099470  0.76754488  0.92268136     0.87800
C214        C  0.44606203  0.75665059  0.06769005     0.87700
C215        C  0.43094221  0.75953778  0.93777431     0.87700
C216        C  0.57591244  0.77080385  0.05323748     0.87900
C217        C  0.32910584  0.28413961  0.84574909    -0.05700
C218        C  0.29804460  0.24386754  0.84861956     0.00200
C219        C  0.30383459  0.21138708  0.88810443    -0.08400
C220        C  0.34549390  0.21549616  0.91735551    -0.05800
C221        C  0.37764888  0.25493021  0.91352124     0.00200
C222        C  0.36632545  0.29231084  0.87976433    -0.08300
C223        C  0.39148510  0.34124075  0.88012259     0.62100
H224        H  0.32292279  0.31015179  0.81711257     0.12800
H225        H  0.35160184  0.18850915  0.94524122     0.12800
C226        C  0.26616270  0.17435749  0.90371187     0.62300
F227        F  0.44077282  0.33552263  0.87265655    -0.22900
F228        F  0.38353748  0.36359452  0.92414233    -0.20200
F229        F  0.37381915  0.37189464  0.84448749    -0.19900
F230        F  0.28720013  0.12883904  0.90521062    -0.19900
F231        F  0.22581805  0.17300295  0.87396450    -0.20200
F232        F  0.25031184  0.18566081  0.94976746    -0.22900
C233        C  0.07996771  0.36079141  0.79422085    -0.05700
C234        C  0.07931803  0.38664236  0.75029826     0.00200
C235        C  0.11099258  0.37107483  0.71257611    -0.08400
C236        C  0.14519949  0.33429538  0.72258352    -0.05800
C237        C  0.14565235  0.30832762  0.76632001     0.00200
C238        C  0.11086662  0.32082374  0.80233599    -0.08300
C239        C  0.10265421  0.29326597  0.84922129     0.62100
H240        H  0.05458233  0.37082306  0.82254054     0.12800
H241        H  0.17231154  0.32521396  0.69574820     0.12800
C242        C  0.10907222  0.39174437  0.66166411     0.62300
F243        F  0.11090315  0.32387610  0.88784481    -0.22900
F244        F  0.13192562  0.25285740  0.85424884    -0.20200
F245        F  0.05474908  0.27799730  0.85122894    -0.19900
F246        F  0.11796281  0.44080206  0.66252624    -0.19900
F247        F  0.06373886  0.38325518  0.64173181    -0.20200
F248        F  0.14344753  0.37078013  0.63152564    -0.22900
C249        C  0.20486079  0.08579805  0.65744146    -0.05700
C250        C  0.24585868  0.08800808  0.62700948     0.00200
C251        C  0.28260463  0.12234660  0.63829513    -0.08400
C252        C  0.27135846  0.15975592  0.67108418    -0.05800
C253        C  0.23111117  0.15702948  0.70234823     0.00200
C254        C  0.19992717  0.11629779  0.69803318    -0.08300
C255        C  0.16401948  0.10059136  0.73642437     0.62100
H256        H  0.17825637  0.05745976  0.65180364     0.12800
H257        H  0.29564218  0.19020010  0.67447810     0.12800
C258        C  0.33456744  0.11750376  0.62008073     0.62300
F259        F  0.17498245  0.05358379  0.75041530    -0.22900
F260        F  0.11747709  0.10142444  0.71758199    -0.20200
F261        F  0.16559984  0.12907066  0.77728892    -0.19900
F262        F  0.33618717  0.11932741  0.57065196    -0.19900
F263        F  0.35379772  0.07375423  0.63563722    -0.20200
F264        F  0.36424437  0.15393124  0.63715403    -0.22900
C265        C  0.38443027  0.74357181  0.19091281    -0.05700
C266        C  0.33507642  0.74942381  0.17868775     0.00200
C267        C  0.32282314  0.75543486  0.12893574    -0.08400
C268        C  0.36070304  0.75824404  0.09463572    -0.05800
C269        C  0.40977924  0.75220787  0.10723492     0.00200
C270        C  0.42145851  0.74083133  0.15593779    -0.08300
C271        C  0.47096244  0.72397252  0.17379031     0.62100
H272        H  0.39407849  0.73850275  0.22856043     0.12800
H273        H  0.35168307  0.76461615  0.05698303     0.12800
C274        C  0.27150606  0.75996908  0.10894045     0.62300
F275        F  0.46682134  0.67894927  0.19537224    -0.22900
F276        F  0.48724212  0.75590112  0.20842489    -0.20200
F277        F  0.50523166  0.71985950  0.13756402    -0.19900
F278        F  0.26780162  0.80187975  0.08158870    -0.19900
F279        F  0.23597419  0.76182306  0.14408063    -0.20200
F280        F  0.26231169  0.72073358  0.07930004    -0.22900
C281        C  0.28656836  0.81875837  0.37366325    -0.05700
C282        C  0.26483018  0.82875282  0.32888457     0.00200
C283        C  0.23997685  0.87379981  0.32254298    -0.08400
C284        C  0.23990865  0.90755806  0.36064831    -0.05800
C285        C  0.26136981  0.89710019  0.40534983     0.00200
C286        C  0.28394663  0.85136203  0.41252821    -0.08300
C287        C  0.30161625  0.83532944  0.46196249     0.62100
H288        H  0.30444794  0.78408412  0.37841061     0.12800
H289        H  0.22179579  0.94226067  0.35578842     0.12800
C290        C  0.21141293  0.88820642  0.27793550     0.62300
F291        F  0.31813713  0.78782399  0.46184665    -0.22900
F292        F  0.26343972  0.83842016  0.49440987    -0.20200
F293        F  0.33943604  0.86443307  0.47717348    -0.19900
F294        F  0.16433869  0.90044293  0.29114034    -0.19900
F295        F  0.20861023  0.85175411  0.24415295    -0.20200
F296        F  0.23285767  0.92836420  0.25700148    -0.22900
C297        C  0.16348543  0.58731745  0.27323583    -0.05700
C298        C  0.11540213  0.60407837  0.27014141     0.00200
C299        C  0.10631074  0.65439553  0.27326664    -0.08400
C300        C  0.14589774  0.68615793  0.26909739    -0.05800
C301        C  0.19461956  0.67018585  0.27239579     0.00200
C302        C  0.20297716  0.61940831  0.27818572    -0.08300
C303        C  0.25136312  0.59648364  0.29088855     0.62100
H304        H  0.17014086  0.54850281  0.27362409     0.12800
H305        H  0.13834957  0.72424683  0.26369657     0.12800
C306        C  0.05696057  0.67660029  0.28460313     0.62300
F307        F  0.24613133  0.56891036  0.33238051    -0.22900
F308        F  0.28716978  0.63018710  0.29931305    -0.20200
F309        F  0.26574237  0.56606558  0.25393957    -0.19900
F310        F  0.01984620  0.64307633  0.28699641    -0.19900
F311        F  0.04532972  0.71145377  0.25046974    -0.20200
F312        F  0.05946946  0.69863534  0.32918669    -0.22900
C313        C  0.65271006  0.25611109  0.16802889    -0.05700
C314        C  0.69825451  0.24499144  0.14701086     0.00200
C315        C  0.70039711  0.23911023  0.09567495    -0.08400
C316        C  0.65726723  0.24303603  0.06857295    -0.05800
C317        C  0.61223707  0.25200768  0.09019461     0.00200
C318        C  0.60957278  0.25898540  0.14057401    -0.08300
C319        C  0.56114767  0.26924748  0.16488668     0.62100
H320        H  0.65120875  0.26248577  0.20657239     0.12800
H321        H  0.65864289  0.23822180  0.02969322     0.12800
C322        C  0.74561326  0.22769868  0.06644064     0.62300
F323        F  0.56555217  0.27167638  0.21462726    -0.22900
F324        F  0.52841950  0.23282092  0.15406127    -0.20200
F325        F  0.54294732  0.31307732  0.14842546    -0.19900
F326        F  0.78615627  0.22038960  0.09433920    -0.19900
F327        F  0.75447380  0.26553483  0.03488871    -0.20200
F328        F  0.73820220  0.18602544  0.03971785    -0.22900
C329        C  0.83189934  0.36366968  0.23164317    -0.05700
C330        C  0.85099259  0.31755825  0.21997096     0.00200
C331        C  0.90183154  0.31333095  0.21044463    -0.08400
C332        C  0.93032283  0.35516950  0.21103294    -0.05800
C333        C  0.91200040  0.39996848  0.22513319     0.00200
C334        C  0.86174099  0.40506463  0.23455398    -0.08300
C335        C  0.83981389  0.45433592  0.24528912     0.62100
H336        H  0.79330670  0.36681006  0.23910954     0.12800
H337        H  0.96793811  0.35257743  0.20086124     0.12800
C338        C  0.92949183  0.26687717  0.20019568     0.62300
F339        F  0.78961885  0.45235253  0.24950144    -0.22900
F340        F  0.85104301  0.48600443  0.20809404    -0.20200
F341        F  0.85848922  0.47193121  0.28811937    -0.19900
F342        F  0.95609488  0.27173082  0.15798058    -0.19900
F343        F  0.89976020  0.22753805  0.19498791    -0.20200
F344        F  0.96147954  0.25803099  0.23777184    -0.22900
C345        C  0.78394830  0.09239380  0.33630038    -0.05700
C346        C  0.76726330  0.11019622  0.38017449     0.00200
C347        C  0.75218578  0.15910913  0.38314159    -0.08400
C348        C  0.75762275  0.18899754  0.34188623    -0.05800
C349        C  0.77333155  0.17015558  0.29701415     0.00200
C350        C  0.78382951  0.11971075  0.29385688    -0.08300
C351        C  0.79382333  0.09142239  0.24788906     0.62100
H352        H  0.79676974  0.05539817  0.33494063     0.12800
H353        H  0.74834083  0.22717586  0.34389643     0.12800
C354        C  0.73135711  0.17933240  0.42963057     0.62300
F355        F  0.83629283  0.06467145  0.25255804    -0.22900
F356        F  0.79863533  0.12031815  0.20787013    -0.20200
F357        F  0.75582284  0.05962654  0.24018116    -0.19900
F358        F  0.76579217  0.17594567  0.46591834    -0.19900
F359        F  0.69054371  0.15322334  0.44290493    -0.20200
F360        F  0.71776752  0.22747953  0.42468800    -0.22900
C361        C  0.67902564  0.77105852  0.85215670    -0.05700
C362        C  0.66370007  0.75917452  0.80541265     0.00200
C363        C  0.61358956  0.74912160  0.79725278    -0.08400
C364        C  0.58042673  0.75490106  0.83579764    -0.05800
C365        C  0.59603240  0.76845654  0.88207426     0.00200
C366        C  0.64610580  0.77576704  0.89054402    -0.08300
C367        C  0.66467164  0.78597823  0.94077606     0.62100
H368        H  0.71743944  0.77630699  0.85855891     0.12800
H369        H  0.54216625  0.74710390  0.83012320     0.12800
C370        C  0.59328155  0.72972419  0.75011693     0.62300
F371        F  0.71457600  0.79285578  0.94181094    -0.22900
F372        F  0.65363479  0.74676871  0.96995638    -0.20200
F373        F  0.64256224  0.82743554  0.95854313    -0.19900
F374        F  0.57054655  0.68589256  0.75882307    -0.19900
F375        F  0.62845026  0.72194116  0.71524766    -0.20200
F376        F  0.55914083  0.76200823  0.73212163    -0.22900
C377        C  0.85596739  0.68900682  0.74046246    -0.05700
C378        C  0.80810510  0.67542030  0.72893102     0.00200
C379        C  0.79787446  0.62581803  0.71944317    -0.08400
C380        C  0.83586370  0.59185781  0.72348276    -0.05800
C381        C  0.88335300  0.60555047  0.73527144     0.00200
C382        C  0.89391332  0.65488916  0.74354796    -0.08300
C383        C  0.94492318  0.67116056  0.75598672     0.62100
H384        H  0.86327477  0.72683427  0.74774881     0.12800
H385        H  0.82825031  0.55397335  0.71737593     0.12800
C386        C  0.74867670  0.60595027  0.70441397     0.62300
F387        F  0.94811123  0.72109893  0.76012211    -0.22900
F388        F  0.97684371  0.65645398  0.72017495    -0.20200
F389        F  0.95844918  0.65071604  0.79960501    -0.19900
F390        F  0.75343557  0.58185266  0.66091223    -0.19900
F391        F  0.71342981  0.64126492  0.69892834    -0.20200
F392        F  0.73292343  0.57295673  0.73864919    -0.22900
C393        C  0.71741672  0.82435131  0.61538316    -0.05700
C394        C  0.74470310  0.83080361  0.65767380     0.00200
C395        C  0.77454670  0.87251701  0.66212713    -0.08400
C396        C  0.77867015  0.90373608  0.62240686    -0.05800
C397        C  0.74831468  0.89977043  0.58195756     0.00200
C398        C  0.71584467  0.85992140  0.57891721    -0.08300
C399        C  0.67858085  0.85518169  0.53877986     0.62100
H400        H  0.69522193  0.79214563  0.61238425     0.12800
H401        H  0.80478304  0.93294755  0.62409077     0.12800
C402        C  0.80042601  0.88804959  0.70797820     0.62300
F403        F  0.65736977  0.80969823  0.53823708    -0.22900
F404        F  0.70004099  0.86252384  0.49444252    -0.20200
F405        F  0.64216845  0.88927935  0.54536425    -0.19900
F406        F  0.84856060  0.89880015  0.69848535    -0.19900
F407        F  0.79966152  0.85319324  0.74358226    -0.20200
F408        F  0.77826289  0.92962773  0.72519555    -0.22900
C409        C  0.79924903  0.37156944  0.07998412    -0.05700
C410        C  0.75713728  0.40014942  0.08454291     0.00200
C411        C  0.72397323  0.38927420  0.12238668    -0.08400
C412        C  0.73396555  0.34967001  0.15314034    -0.05800
C413        C  0.77453963  0.31908108  0.14652915     0.00200
C414        C  0.80828980  0.33088019  0.10915004    -0.08300
C415        C  0.85385314  0.30256982  0.09637493     0.62100
H416        H  0.82517092  0.38003714  0.05163782     0.12800
H417        H  0.70964639  0.34181978  0.18292060     0.12800
C418        C  0.67964588  0.42046747  0.13223452     0.62300
F419        F  0.85216851  0.28898982  0.04833520    -0.22900
F420        F  0.85947393  0.26124986  0.12333057    -0.20200
F421        F  0.89412192  0.33178901  0.10297060    -0.19900
F422        F  0.64696026  0.41698945  0.09445654    -0.19900
F423        F  0.69437354  0.46787118  0.13768193    -0.20200
F424        F  0.65566691  0.40679166  0.17410155    -0.22900
C425        C  0.69980768  0.64784987  0.80805084    -0.05700
C426        C  0.73680863  0.68275090  0.80737470     0.00200
C427        C  0.77170604  0.68300845  0.84521056    -0.08400
C428        C  0.77036087  0.64570153  0.87994983    -0.05800
C429        C  0.73440055  0.60945801  0.87959868     0.00200
C430        C  0.69812820  0.61078014  0.84307014    -0.08300
C431        C  0.65889749  0.57234046  0.83945477     0.62100
H432        H  0.67225355  0.64960054  0.78018150     0.12800
H433        H  0.79740679  0.64552864  0.90848542     0.12800
C434        C  0.80964647  0.72237678  0.85247031     0.62300
F435        F  0.63148540  0.57730049  0.79776739    -0.22900
F436        F  0.62758865  0.57595130  0.87841151    -0.20200
F437        F  0.68015073  0.52682255  0.83879610    -0.19900
F438        F  0.80287399  0.74322200  0.89740705    -0.19900
F439        F  0.80735310  0.75899885  0.81842838    -0.20200
F440        F  0.85570152  0.70196136  0.85100346    -0.22900
C441        C  0.21729863  0.30480735  0.89137688    -0.05700
C442        C  0.22217514  0.31611990  0.84199622     0.00200
C443        C  0.23456045  0.36449511  0.82861929    -0.08400
C444        C  0.23762544  0.39999952  0.86500851    -0.05800
C445        C  0.23270545  0.38804379  0.91395830     0.00200
C446        C  0.22379440  0.33964299  0.92757728    -0.08300
C447        C  0.22229323  0.32500667  0.98034627     0.62100
H448        H  0.20973874  0.26768598  0.90149701     0.12800
H449        H  0.24552184  0.43727199  0.85522002     0.12800
C450        C  0.24769842  0.38066734  0.77779147     0.62300
F451        F  0.21747119  0.27542506  0.98620008    -0.22900
F452        F  0.18314133  0.34737065  0.00249977    -0.20200
F453        F  0.26501390  0.33901257  0.00279101    -0.19900
F454        F  0.25192776  0.34281585  0.74553294    -0.19900
F455        F  0.29206228  0.40430480  0.77867091    -0.20200
F456        F  0.21264768  0.41273345  0.76117980    -0.22900
C457        C  0.29307474  0.60295416  0.13931483    -0.05700
C458        C  0.24760659  0.59741588  0.11674106     0.00200
C459        C  0.20783237  0.62589013  0.13381890    -0.08400
C460        C  0.21728898  0.66304224  0.16723073    -0.05800
C461        C  0.26278054  0.66861868  0.18991909     0.00200
C462        C  0.30063098  0.63554655  0.17750516    -0.08300
C463        C  0.34886289  0.63029710  0.20352581     0.62100
H464        H  0.32299262  0.57946365  0.12878090     0.12800
H465        H  0.18835388  0.68789356  0.17692707     0.12800
C466        C  0.15536086  0.61699795  0.11891303     0.62300
F467        F  0.35409225  0.58321679  0.22014209    -0.22900
F468        F  0.35352930  0.66076481  0.24262471    -0.20200
F469        F  0.38592705  0.63911422  0.17105570    -0.19900
F470        F  0.14201190  0.57039739  0.13181165    -0.19900
F471        F  0.15031346  0.62313746  0.06974544    -0.20200
F472        F  0.12319024  0.64854692  0.14138105    -0.22900
C473        C  0.29970128  0.12320390  0.79856841    -0.05700
C474        C  0.30478296  0.16868228  0.77633589     0.00200
C475        C  0.35018168  0.18159715  0.75528521    -0.08400
C476        C  0.38620563  0.14564575  0.75154818    -0.05800
C477        C  0.38109016  0.10034833  0.77394598     0.00200
C478        C  0.33905923  0.09067520  0.80185031    -0.08300
C479        C  0.33712001  0.04894755  0.83780392     0.62100
H480        H  0.26526075  0.11432174  0.81530703     0.12800
H481        H  0.41893119  0.15325537  0.73122863     0.12800
C482        C  0.36297874  0.23198192  0.73651505     0.62300
F483        F  0.36902724  0.05846144  0.87520801    -0.22900
F484        F  0.35048473  0.00572578  0.81675416    -0.20200
F485        F  0.29098226  0.04315099  0.85709021    -0.19900
F486        F  0.39810649  0.25182050  0.76622340    -0.19900
F487        F  0.32370410  0.26329379  0.73471590    -0.20200
F488        F  0.38201806  0.22901881  0.69041963    -0.22900
C489        C  0.62812306  0.90567775  0.76403995    -0.05700
C490        C  0.59126824  0.90259037  0.72921504     0.00200
C491        C  0.59379211  0.86611239  0.69344212    -0.08400
C492        C  0.63270680  0.83286516  0.69533876    -0.05800
C493        C  0.66865419  0.83475626  0.73146532     0.00200
C494        C  0.66656372  0.87243168  0.76638379    -0.08300
C495        C  0.70217093  0.88009091  0.80755449     0.62100
H496        H  0.62639397  0.93431779  0.79083975     0.12800
H497        H  0.63420076  0.80351833  0.66958349     0.12800
C498        C  0.55470344  0.86048405  0.65509943     0.62300
F499        F  0.67727124  0.87807816  0.85097532    -0.22900
F500        F  0.72272292  0.92561781  0.80345299    -0.20200
F501        F  0.73914949  0.84638009  0.80893699    -0.19900
F502        F  0.55400212  0.90087727  0.62544840    -0.19900
F503        F  0.50969350  0.85511814  0.67690658    -0.20200
F504        F  0.56286016  0.82028306  0.62625083    -0.22900
C505        C  0.32391229  0.79789173  0.85607542    -0.05700
C506        C  0.30363193  0.75237308  0.84643995     0.00200
C507        C  0.31260706  0.71815440  0.88349934    -0.08400
C508        C  0.36084830  0.71564610  0.90038992    -0.05800
C509        C  0.38718766  0.75924298  0.90535733     0.00200
C510        C  0.36629558  0.80243469  0.88455255    -0.08300
C511        C  0.38767562  0.85284897  0.89078425     0.62100
H512        H  0.30656572  0.82967852  0.84136384     0.12800
H513        H  0.37146434  0.68453946  0.92199598     0.12800
C514        C  0.27732226  0.71865685  0.92609905     0.62300
F515        F  0.36295153  0.88742631  0.86387188    -0.22900
F516        F  0.43568780  0.85308519  0.87561273    -0.20200
F517        F  0.38462244  0.86666355  0.93869720    -0.19900
F518        F  0.27492674  0.67319240  0.94694031    -0.19900
F519        F  0.23134241  0.73391021  0.91264899    -0.20200
F520        F  0.29315858  0.75084449  0.96112622    -0.22900
C521        C  0.17606397  0.62050541  0.73729845    -0.05700
C522        C  0.16573194  0.66639564  0.75648017     0.00200
C523        C  0.11799307  0.67667695  0.77376045    -0.08400
C524        C  0.08253153  0.64039600  0.77063371    -0.05800
C525        C  0.09221048  0.59556712  0.74912331     0.00200
C526        C  0.13972252  0.58518434  0.73226285    -0.08300
C527        C  0.15177076  0.53713053  0.70891047     0.62100
H528        H  0.21282391  0.61286119  0.72543154     0.12800
H529        H  0.04652177  0.64750999  0.78469735     0.12800
C530        C  0.10184458  0.72445954  0.79600214     0.62300
F531        F  0.12636226  0.53361453  0.66600737    -0.22900
F532        F  0.13882001  0.49960597  0.73954143    -0.20200
F533        F  0.20092110  0.53257556  0.69863613    -0.19900
F534        F  0.06561251  0.74468063  0.76768545    -0.19900
F535        F  0.13915666  0.75758418  0.80076903    -0.20200
F536        F  0.08260431  0.71607070  0.84139449    -0.22900
C537        C  0.21237479  0.84402888  0.68019047    -0.05700
C538        C  0.24766624  0.80707545  0.67770988     0.00200
C539        C  0.28177557  0.80780383  0.63923502    -0.08400
C540        C  0.28002406  0.84639086  0.60587300    -0.05800
C541        C  0.24401258  0.88274478  0.60790431     0.00200
C542        C  0.20851787  0.88074360  0.64514112    -0.08300
C543        C  0.16784703  0.91801870  0.64952377     0.62100
H544        H  0.18831070  0.84451764  0.71108041     0.12800
H545        H  0.30726865  0.84794247  0.57756091     0.12800
C546        C  0.32098173  0.76982470  0.63139206     0.62300
F547        F  0.14085069  0.91186585  0.69136224    -0.22900
F548        F  0.13642566  0.91365796  0.61078584    -0.20200
F549        F  0.18711572  0.96422428  0.65032323    -0.19900
F550        F  0.32022632  0.73313284  0.66526806    -0.19900
F551        F  0.36612207  0.79182859  0.63298421    -0.20200
F552        F  0.31493097  0.74920504  0.58630715    -0.22900
C553        C  0.19641338  0.65980588  0.86191380    -0.05700
C554        C  0.23722570  0.66259458  0.83147079     0.00200
C555        C  0.27188037  0.62439735  0.83295308    -0.08400
C556        C  0.26916345  0.59045140  0.87075403    -0.05800
C557        C  0.23005037  0.58986071  0.90368380     0.00200
C558        C  0.19128899  0.62343801  0.89716133    -0.08300
C559        C  0.14570776  0.62274936  0.92815108     0.62100
H560        H  0.16945014  0.68814883  0.85934740     0.12800
H561        H  0.29762916  0.56326525  0.87384964     0.12800
C562        C  0.31161788  0.61705220  0.79560168     0.62300
F563        F  0.11368329  0.65970538  0.91628078    -0.22900
F564        F  0.15824407  0.62836977  0.97604748    -0.20200
F565        F  0.12149011  0.57932121  0.92183702    -0.19900
F566        F  0.35607675  0.62962820  0.81524727    -0.19900
F567        F  0.30377139  0.64370294  0.75407417    -0.20200
F568        F  0.31329905  0.56869530  0.78228716    -0.22900
C569        C  0.40124162  0.84513036  0.74995498    -0.05700
C570        C  0.38350429  0.89284416  0.74656238     0.00200
C571        C  0.33259103  0.90074522  0.74515366    -0.08400
C572        C  0.30163186  0.86114948  0.75259166    -0.05800
C573        C  0.31860449  0.81293248  0.75427396     0.00200
C574        C  0.36989443  0.80472737  0.75204072    -0.08300
C575        C  0.39423626  0.75525953  0.75191741     0.62100
H576        H  0.44032937  0.83926372  0.75036963     0.12800
H577        H  0.26301395  0.86803466  0.75651640     0.12800
C578        C  0.30816693  0.94916781  0.73499434     0.62300
F579        F  0.42126677  0.75009519  0.71003563    -0.22900
F580        F  0.36174690  0.71753403  0.75415420    -0.20200
F581        F  0.42532523  0.75155529  0.79105534    -0.19900
F582        F  0.27935449  0.94479837  0.69444569    -0.19900
F583        F  0.34051307  0.98633524  0.72632389    -0.20200
F584        F  0.27863167  0.96162472  0.77355604    -0.22900
C585        C  0.15738217  0.71895047  0.41164055    -0.05700
C586        C  0.11743931  0.74976150  0.40391743     0.00200
C587        C  0.11818649  0.78297629  0.36466482    -0.08400
C588        C  0.15814439  0.78221051  0.33328728    -0.05800
C589        C  0.19752665  0.75049333  0.33996648     0.00200
C590        C  0.19845194  0.72004958  0.38132732    -0.08300
C591        C  0.24174381  0.68947357  0.39638122     0.62100
H592        H  0.15719814  0.69485172  0.44266346     0.12800
H593        H  0.15782393  0.80477570  0.30143908     0.12800
C594        C  0.07620193  0.81758754  0.35413789     0.62300
F595        F  0.25486189  0.70160841  0.44305243    -0.22900
F596        F  0.28195098  0.69615424  0.36721274    -0.20200
F597        F  0.22887070  0.64111702  0.39560245    -0.19900
F598        F  0.07477997  0.85366707  0.38871781    -0.19900
F599        F  0.03265366  0.79266800  0.35425100    -0.20200
F600        F  0.08080880  0.83970921  0.30943745    -0.22900
C601        C  0.85086658  0.78175113  0.66079636    -0.05700
C602        C  0.81182019  0.75013022  0.65447562     0.00200
C603        C  0.81107048  0.72043016  0.61276130    -0.08400
C604        C  0.85273808  0.71883356  0.58307479    -0.05800
C605        C  0.89163648  0.75126886  0.58914415     0.00200
C606        C  0.88854742  0.78631193  0.62698632    -0.08300
C607        C  0.91981984  0.83151354  0.63321559     0.62100
H608        H  0.85117551  0.80449307  0.69239848     0.12800
H609        H  0.85328265  0.69420481  0.55261440     0.12800
C610        C  0.76697722  0.69261165  0.59560671     0.62300
F611        F  0.89211560  0.87154912  0.62083620    -0.22900
F612        F  0.96116745  0.83308677  0.60567823    -0.20200
F613        F  0.93407440  0.83583099  0.68098262    -0.19900
F614        F  0.75433872  0.70891763  0.54997530    -0.19900
F615        F  0.72691862  0.69847971  0.62514642    -0.20200
F616        F  0.77841063  0.64388959  0.59272933    -0.22900
C617        C  0.13919728  0.71133113  0.60080380    -0.05700
C618        C  0.10030759  0.74431554  0.60587124     0.00200
C619        C  0.09689679  0.77178865  0.64888543    -0.08400
C620        C  0.13300834  0.76637207  0.68426788    -0.05800
C621        C  0.17274267  0.73497414  0.67855576     0.00200
C622        C  0.17561924  0.70609451  0.63627710    -0.08300
C623        C  0.21526628  0.66901149  0.62638574     0.62100
H624        H  0.14143097  0.68944360  0.56835818     0.12800
H625        H  0.13074225  0.78739012  0.71700503     0.12800
C626        C  0.05385298  0.80426204  0.65907291     0.62300
F627        F  0.19438589  0.62362200  0.62221266    -0.22900
F628        F  0.25020053  0.66681808  0.66207959    -0.20200
F629        F  0.23812252  0.68027888  0.58329939    -0.19900
F630        F  0.05580947  0.82497954  0.70454040    -0.19900
F631        F  0.01213569  0.77652588  0.65662585    -0.20200
F632        F  0.05249046  0.84156503  0.62570497    -0.22900
C633        C  0.64053175  0.76533193  0.17199485    -0.05700
C634        C  0.68985329  0.77058024  0.15918528     0.00200
C635        C  0.70012496  0.78742431  0.11168425    -0.08400
C636        C  0.66326332  0.78413473  0.07648038    -0.05800
C637        C  0.61491774  0.77511727  0.08984327     0.00200
C638        C  0.60351832  0.77765039  0.13922648    -0.08300
C639        C  0.56637220  0.81505960  0.15563900     0.62100
H640        H  0.63095050  0.75746499  0.20885761     0.12800
H641        H  0.67163119  0.79339923  0.03963732     0.12800
C642        C  0.74550521  0.81500391  0.09774462     0.62300
F643        F  0.58431357  0.86075445  0.14537049    -0.22900
F644        F  0.55847858  0.81231753  0.20481843    -0.20200
F645        F  0.52242296  0.81022890  0.13214166    -0.19900
F646        F  0.76801336  0.79226238  0.05944192    -0.19900
F647        F  0.77798436  0.81983162  0.13540309    -0.20200
F648        F  0.73222571  0.86120570  0.08311303    -0.22900
C649        C  0.88166718  0.68659898  0.20968165    -0.05700
C650        C  0.83474283  0.67720653  0.22757284     0.00200
C651        C  0.82447224  0.63067892  0.24715301    -0.08400
C652        C  0.86252227  0.59654200  0.25002028    -0.05800
C653        C  0.90837464  0.60521784  0.22937400     0.00200
C654        C  0.91690023  0.64972934  0.20546615    -0.08300
C655        C  0.96080898  0.65727482  0.17277656     0.62100
H656        H  0.89006238  0.72274458  0.19718292     0.12800
H657        H  0.85593932  0.56218867  0.26776358     0.12800
C658        C  0.77511049  0.61495873  0.26646727     0.62300
F659        F  0.96372092  0.70456846  0.15613934    -0.22900
F660        F  0.95690405  0.62696388  0.13323918    -0.20200
F661        F  0.00358256  0.64654681  0.19634079    -0.19900
F662        F  0.75868867  0.57614517  0.23949884    -0.19900
F663        F  0.74015812  0.65103259  0.26477463    -0.20200
F664        F  0.77980571  0.60011028  0.31400320    -0.22900
C665        C  0.78026873  0.87062060  0.29973198    -0.05700
C666        C  0.76843771  0.82352393  0.31460496     0.00200
C667        C  0.75968889  0.81480556  0.36465697    -0.08400
C668        C  0.76229442  0.85414182  0.39693558    -0.05800
C669        C  0.76956138  0.90179907  0.38101120     0.00200
C670        C  0.77999815  0.90986332  0.33175531    -0.08300
C671        C  0.78998346  0.95995646  0.31309670     0.62100
H672        H  0.78855879  0.87665047  0.26197133     0.12800
H673        H  0.75790106  0.84748401  0.43507685     0.12800
C674        C  0.74685656  0.76612961  0.38681393     0.62300
F675        F  0.80027831  0.96051232  0.26411717    -0.22900
F676        F  0.82980032  0.97843817  0.33737411    -0.20200
F677        F  0.74901717  0.98815209  0.32097172    -0.19900
F678        F  0.73930810  0.73042176  0.35294623    -0.19900
F679        F  0.70484307  0.77059166  0.41404274    -0.20200
F680        F  0.78392367  0.75169810  0.41742395    -0.22900
C681        C  0.78567785  0.64191976  0.08289502    -0.05700
C682        C  0.74369550  0.61305026  0.08325727     0.00200
C683        C  0.70612769  0.62456818  0.11691298    -0.08400
C684        C  0.71527171  0.66025966  0.15227705    -0.05800
C685        C  0.75801169  0.68831198  0.15240623     0.00200
C686        C  0.79250974  0.68066973  0.11479841    -0.08300
C687        C  0.83626140  0.71216540  0.10406212     0.62100
H688        H  0.81337186  0.63544327  0.05567716     0.12800
H689        H  0.68844360  0.66725316  0.18011003     0.12800
C690        C  0.65632986  0.60083500  0.11559047     0.62300
F691        F  0.87799459  0.68453522  0.10781963    -0.22900
F692        F  0.83978112  0.75174042  0.13405848    -0.20200
F693        F  0.83371041  0.72867526  0.05695439    -0.19900
F694        F  0.66087301  0.55147977  0.12168412    -0.19900
F695        F  0.63415693  0.61047183  0.07176300    -0.20200
F696        F  0.62589688  0.61799677  0.15169672    -0.22900
C697        C  0.84176293  0.70942033  0.33788094    -0.05700
C698        C  0.84282030  0.74761733  0.30448193     0.00200
C699        C  0.88103945  0.78194881  0.30734395    -0.08400
C700        C  0.91302630  0.77996891  0.34700398    -0.05800
C701        C  0.91059623  0.74294175  0.38191995     0.00200
C702        C  0.87493204  0.70597241  0.37644449    -0.08300
C703        C  0.86972780  0.66411540  0.41196808     0.62100
H704        H  0.81329659  0.68285710  0.33436837     0.12800
H705        H  0.94088826  0.80749109  0.35014378     0.12800
C706        C  0.89131874  0.82011270  0.26913844     0.62300
F707        F  0.82894621  0.63626778  0.40264373    -0.22900
F708        F  0.86528701  0.68182908  0.45845838    -0.20200
F709        F  0.90996089  0.63396847  0.40890560    -0.19900
F710        F  0.88845022  0.86570864  0.28967241    -0.19900
F711        F  0.85976712  0.81826770  0.23034631    -0.20200
F712        F  0.93804716  0.81327943  0.25162898    -0.22900
C713        C  0.37841187  0.89909490  0.22187121    -0.05700
C714        C  0.41191680  0.89905588  0.26013854     0.00200
C715        C  0.40890785  0.86169433  0.29535160    -0.08400
C716        C  0.37287978  0.82560286  0.29008117    -0.05800
C717        C  0.33807863  0.82678089  0.25267272     0.00200
C718        C  0.34101169  0.86477188  0.21793412    -0.08300
C719        C  0.30658927  0.87220476  0.17592255     0.62100
H720        H  0.38060176  0.92746260  0.19475488     0.12800
H721        H  0.37091865  0.79619374  0.31596075     0.12800
C722        C  0.44336570  0.85943170  0.33813251     0.62300
F723        F  0.33195308  0.86606570  0.13318363    -0.22900
F724        F  0.28811410  0.91892248  0.17691514    -0.20200
F725        F  0.26795308  0.84092781  0.17660333    -0.19900
F726        F  0.43469042  0.89848410  0.36824655    -0.19900
F727        F  0.49108960  0.86053824  0.32222375    -0.20200
F728        F  0.43724866  0.81746710  0.36498028    -0.22900
C729        C  0.64496441  0.10455394  0.19865395    -0.05700
C730        C  0.61751145  0.10794850  0.24127138     0.00200
C731        C  0.62891523  0.14496832  0.27482829    -0.08400
C732        C  0.66760136  0.17680346  0.26410376    -0.05800
C733        C  0.69766165  0.17089827  0.22318297     0.00200
C734        C  0.68535177  0.13404281  0.18933582    -0.08300
C735        C  0.71269769  0.12215764  0.14325170     0.62100
H736        H  0.63600528  0.07668254  0.17255886     0.12800
H737        H  0.67545576  0.20645003  0.28836479     0.12800
C738        C  0.60067981  0.15128827  0.32154319     0.62300
F739        F  0.72648102  0.07384566  0.14378794    -0.22900
F740        F  0.75397603  0.14917480  0.13702963    -0.20200
F741        F  0.68230561  0.12975985  0.10412892    -0.19900
F742        F  0.60943676  0.11212000  0.35162316    -0.19900
F743        F  0.55137346  0.15460750  0.31184093    -0.20200
F744        F  0.61427667  0.19284280  0.34599636    -0.22900
C745        C  0.61625632  0.86530338  0.27835866    -0.05700
C746        C  0.62110824  0.90634661  0.24901923     0.00200
C747        C  0.66257462  0.91133071  0.21908655    -0.08400
C748        C  0.69648091  0.87310548  0.21741550    -0.05800
C749        C  0.69038239  0.83072593  0.24496139     0.00200
C750        C  0.64921724  0.82651358  0.27584089    -0.08300
C751        C  0.63595501  0.78156017  0.30460416     0.62100
H752        H  0.58465009  0.86224151  0.30163751     0.12800
H753        H  0.72821992  0.87591280  0.19440207     0.12800
C754        C  0.67210379  0.95759109  0.19091324     0.62300
F755        F  0.63676102  0.79255292  0.35320327    -0.22900
F756        F  0.66655437  0.74275783  0.29601529    -0.20200
F757        F  0.58921395  0.76726645  0.29271745    -0.19900
F758        F  0.66908894  0.99689902  0.22170757    -0.19900
F759        F  0.63820222  0.96275191  0.15437669    -0.20200
F760        F  0.71798994  0.95764602  0.17015745    -0.22900
C761        C  0.62741639  0.26584694  0.81370301    -0.05700
C762        C  0.67058269  0.24109301  0.82559614     0.00200
C763        C  0.67566941  0.22121174  0.87276386    -0.08400
C764        C  0.63644082  0.22509324  0.90521800    -0.05800
C765        C  0.59335349  0.24973024  0.89327727     0.00200
C766        C  0.58872201  0.27076566  0.84682733    -0.08300
C767        C  0.54292513  0.29754270  0.83209344     0.62100
H768        H  0.62443906  0.28171802  0.77804108     0.12800
H769        H  0.63998991  0.20952354  0.94107947     0.12800
C770        C  0.72128114  0.19678458  0.89200744     0.62300
F771        F  0.54414508  0.31172250  0.78409261    -0.22900
F772        F  0.53788287  0.33869612  0.86008664    -0.20200
F773        F  0.50304172  0.26771115  0.83856145    -0.19900
F774        F  0.73773088  0.22214940  0.93180957    -0.19900
F775        F  0.75858975  0.19456449  0.85875755    -0.20200
F776        F  0.71026658  0.15010635  0.90650006    -0.22900
C777        C  0.88875805  0.35862419  0.77329875    -0.05700
C778        C  0.88118631  0.39474411  0.73840085     0.00200
C779        C  0.84170533  0.39040206  0.70577348    -0.08400
C780        C  0.80981621  0.35093355  0.71124221    -0.05800
C781        C  0.81767788  0.31461931  0.74607063     0.00200
C782        C  0.85849887  0.31809786  0.77725931    -0.08300
C783        C  0.87313715  0.28079273  0.81491747     0.62100
H784        H  0.91971587  0.36154065  0.79746488     0.12800
H785        H  0.77834158  0.34787636  0.68799682     0.12800
C786        C  0.83273679  0.42707329  0.66583659     0.62300
F787        F  0.91937027  0.26380392  0.80443976    -0.22900
F788        F  0.84214848  0.24170287  0.81724957    -0.20200
F789        F  0.87440341  0.30252563  0.85987111    -0.19900
F790        F  0.86990684  0.42445626  0.63222438    -0.19900
F791        F  0.83088063  0.47317025  0.68496354    -0.20200
F792        F  0.78920435  0.41879495  0.64205083    -0.22900
C793        C  0.71713131  0.14272451  0.59096254    -0.05700
C794        C  0.74726253  0.10159197  0.59384958     0.00200
C795        C  0.77212088  0.09200875  0.63782667    -0.08400
C796        C  0.76854370  0.12539427  0.67587230    -0.05800
C797        C  0.74030918  0.16753215  0.67243233     0.00200
C798        C  0.71329758  0.17614947  0.62938979    -0.08300
C799        C  0.67976355  0.21929660  0.62165830     0.62100
H800        H  0.69700492  0.14936815  0.55789897     0.12800
H801        H  0.78812752  0.11868200  0.70893426     0.12800
C802        C  0.79857009  0.04455971  0.64637484     0.62300
F803        F  0.69275391  0.24304451  0.57953542    -0.22900
F804        F  0.68111083  0.25253351  0.65884082    -0.20200
F805        F  0.63246482  0.20281089  0.61705299    -0.19900
F806        F  0.83897453  0.04096125  0.61677709    -0.19900
F807        F  0.76652837  0.00746763  0.63680946    -0.20200
F808        F  0.81419495  0.03946098  0.69366481    -0.22900
C809        C  0.76533659  0.31433727  0.86313521    -0.05700
C810        C  0.74173419  0.31897398  0.81854637     0.00200
C811        C  0.71840610  0.36363165  0.80699241    -0.08400
C812        C  0.72000608  0.40183761  0.84079705    -0.05800
C813        C  0.74485874  0.39731581  0.88488190     0.00200
C814        C  0.76791541  0.35274414  0.89629245    -0.08300
C815        C  0.79325431  0.34495167  0.94432101     0.62100
H816        H  0.78241636  0.28020576  0.87176699     0.12800
H817        H  0.70195536  0.43579656  0.83239928     0.12800
C818        C  0.69122475  0.37338244  0.76019651     0.62300
F819        F  0.81125052  0.29824305  0.94916599    -0.22900
F820        F  0.76028280  0.35298719  0.98113182    -0.20200
F821        F  0.83198454  0.37650788  0.94878144    -0.19900
F822        F  0.64343538  0.38536983  0.77073480    -0.19900
F823        F  0.69083886  0.33432236  0.72907541    -0.20200
F824        F  0.71264589  0.41209272  0.73655997    -0.22900
C825        C  0.62441889  0.17921529  0.73306088    -0.05700
C826        C  0.66946446  0.16469654  0.75213628     0.00200
C827        C  0.67468612  0.11686341  0.77079629    -0.08400
C828        C  0.63425387  0.08575240  0.76981225    -0.05800
C829        C  0.58921728  0.10054121  0.75103625     0.00200
C830        C  0.58390433  0.14824151  0.73267543    -0.08300
C831        C  0.53493328  0.16769776  0.71633411     0.62100
H832        H  0.62094283  0.21580013  0.71932296     0.12800
H833        H  0.63803551  0.04907151  0.78363564     0.12800
C834        C  0.72113947  0.09598393  0.79203189     0.62300
F835        F  0.53739937  0.21586930  0.70231900    -0.22900
F836        F  0.50257915  0.16435068  0.75439609    -0.20200
F837        F  0.51777144  0.14141331  0.67750561    -0.19900
F838        F  0.75900414  0.12858792  0.79308392    -0.19900
F839        F  0.73557472  0.05631851  0.76501152    -0.20200
F840        F  0.71227210  0.08058747  0.83876968    -0.22900
C841        C  0.41335133  0.28629987  0.15498980    -0.05700
C842        C  0.40367559  0.25470822  0.11655187     0.00200
C843        C  0.36168676  0.22489800  0.11872330    -0.08400
C844        C  0.33125238  0.22771477  0.15958873    -0.05800
C845        C  0.34141724  0.25852211  0.19857238     0.00200
C846        C  0.38329749  0.28865441  0.19617610    -0.08300
C847        C  0.39858482  0.32401961  0.23516897     0.62100
H848        H  0.44523068  0.30930249  0.15306567     0.12800
H849        H  0.29868164  0.20586954  0.16131059     0.12800
C850        C  0.34767776  0.19175796  0.07728289     0.62300
F851        F  0.44458948  0.31167838  0.25143895    -0.22900
F852        F  0.36751181  0.32481871  0.27429370    -0.20200
F853        F  0.40046289  0.37027289  0.21582129    -0.19900
F854        F  0.38111981  0.15438810  0.07322067    -0.19900
F855        F  0.34639647  0.21803868  0.03471735    -0.20200
F856        F  0.30222124  0.17126297  0.08402848    -0.22900
C857        C  0.14970404  0.32037734  0.25387063    -0.05700
C858        C  0.19368077  0.33415002  0.27529050     0.00200
C859        C  0.19919823  0.38272572  0.29173189    -0.08400
C860        C  0.16015592  0.41541981  0.28588785    -0.05800
C861        C  0.11645305  0.40138254  0.26419376     0.00200
C862        C  0.11082980  0.35300356  0.24859695    -0.08300
C863        C  0.06317858  0.33573252  0.22816101     0.62100
H864        H  0.14614658  0.28357713  0.24094310     0.12800
H865        H  0.16406068  0.45261991  0.29793201     0.12800
C866        C  0.24459524  0.40274409  0.31540114     0.62300
F867        F  0.06373648  0.28660067  0.21793198    -0.22900
F868        F  0.05336598  0.36065959  0.18585384    -0.20200
F869        F  0.02706135  0.34427610  0.26196628    -0.19900
F870        F  0.28170781  0.36917999  0.31930032    -0.19900
F871        F  0.23298300  0.41908206  0.36116201    -0.20200
F872        F  0.26148611  0.44166738  0.28872221    -0.22900
C873        C  0.28739081  0.18582416  0.38985625    -0.05700
C874        C  0.26415543  0.17976599  0.34530913     0.00200
C875        C  0.23860239  0.13586877  0.33655593    -0.08400
C876        C  0.23799461  0.09973505  0.37276299    -0.05800
C877        C  0.26196352  0.10567490  0.41713448     0.00200
C878        C  0.28661320  0.14986832  0.42592929    -0.08300
C879        C  0.31033284  0.15996465  0.47394962     0.62100
H880        H  0.30616218  0.21941951  0.39648428     0.12800
H881        H  0.21866977  0.06616465  0.36611074     0.12800
C882        C  0.21103570  0.12477866  0.29045814     0.62300
F883        F  0.32810436  0.20679459  0.47702431    -0.22900
F884        F  0.34902283  0.12842217  0.48028095    -0.20200
F885        F  0.27614257  0.15392331  0.51017965    -0.19900
F886        F  0.23034461  0.08338387  0.26966399    -0.19900
F887        F  0.21291127  0.16168842  0.25677541    -0.20200
F888        F  0.16266312  0.11639633  0.30160678    -0.22900
C889        C  0.28699069  0.37348800  0.19991754    -0.05700
C890        C  0.26292468  0.32890192  0.19720998     0.00200
C891        C  0.23400996  0.31829572  0.15607958    -0.08400
C892        C  0.22985689  0.35344059  0.11958701    -0.05800
C893        C  0.25457407  0.39766894  0.12199123     0.00200
C894        C  0.28361870  0.40821853  0.16290255    -0.08300
C895        C  0.30891021  0.45677444  0.16874117     0.62100
H896        H  0.30825384  0.38112838  0.23171465     0.12800
H897        H  0.20739981  0.34587352  0.08845764     0.12800
C898        C  0.20700749  0.27102817  0.14794296     0.62300
F899        F  0.33220354  0.46060884  0.21289347    -0.22900
F900        F  0.27483016  0.49364980  0.16572034    -0.20200
F901        F  0.34363385  0.46280279  0.13309550    -0.19900
F902        F  0.15790472  0.28075467  0.14207613    -0.19900
F903        F  0.21204158  0.23820232  0.18531642    -0.20200
F904        F  0.22434286  0.24950732  0.10619252    -0.22900
C905        C  0.41797903  0.14498619  0.29419097    -0.05700
C906        C  0.40923913  0.10713239  0.26160091     0.00200
C907        C  0.36513559  0.10632785  0.23514574    -0.08400
C908        C  0.33182340  0.14449581  0.24166864    -0.05800
C909        C  0.34139087  0.18320910  0.27301240     0.00200
C910        C  0.38492408  0.18324885  0.30049744    -0.08300
C911        C  0.39886571  0.22166267  0.33711156     0.62100
H912        H  0.45151263  0.14495054  0.31487365     0.12800
H913        H  0.29801347  0.14479020  0.22167969     0.12800
C914        C  0.35247414  0.06499974  0.20129909     0.62300
F915        F  0.40431387  0.20004896  0.38194795    -0.22900
F916        F  0.36501835  0.25844657  0.34135512    -0.20200
F917        F  0.44287388  0.24201847  0.32391408    -0.19900
F918        F  0.35719980  0.02117913  0.22528065    -0.19900
F919        F  0.38318666  0.06565874  0.16171479    -0.20200
F920        F  0.30508164  0.06849273  0.18454544    -0.22900
C921        C  0.84639478  0.28534612  0.32740720    -0.05700
C922        C  0.84961388  0.24377136  0.29784529     0.00200
C923        C  0.88389419  0.20716426  0.31153502    -0.08400
C924        C  0.90969728  0.21195240  0.35493559    -0.05800
C925        C  0.90665850  0.25318727  0.38426677     0.00200
C926        C  0.87623988  0.29205489  0.36867260    -0.08300
C927        C  0.87565060  0.34067560  0.39424062     0.62100
H928        H  0.82021165  0.31304164  0.31761316     0.12800
H929        H  0.93458123  0.18302772  0.36506401     0.12800
C930        C  0.89761309  0.16278544  0.28244945     0.62300
F931        F  0.84306174  0.37285393  0.37329200    -0.22900
F932        F  0.92143487  0.36130955  0.39172244    -0.20200
F933        F  0.86249716  0.33467608  0.44199870    -0.19900
F934        F  0.94656002  0.16488141  0.27079032    -0.19900
F935        F  0.87194446  0.15871046  0.24035242    -0.20200
F936        F  0.89006242  0.12163110  0.31004468    -0.22900
C937        C  0.07018673  0.22575589  0.65857770    -0.05700
C938        C  0.08970096  0.23762515  0.61343153     0.00200
C939        C  0.14054466  0.24369560  0.60870689    -0.08400
C940        C  0.17027524  0.23870635  0.64991765    -0.05800
C941        C  0.15087781  0.22803582  0.69586059     0.00200
C942        C  0.09961053  0.22062580  0.69994466    -0.08300
C943        C  0.07318784  0.20724730  0.74606448     0.62100
H944        H  0.03115200  0.22047733  0.66160648     0.12800
H945        H  0.20905017  0.24513748  0.64697184     0.12800
C946        C  0.16290619  0.25632493  0.56034253     0.62300
F947        F  0.04674379  0.16528362  0.73883698    -0.22900
F948        F  0.04106551  0.24405832  0.75794218    -0.20200
F949        F  0.10409574  0.19934635  0.78433841    -0.19900
F950        F  0.14572202  0.30117586  0.54569653    -0.19900
F951        F  0.15027843  0.22167824  0.52657165    -0.20200
F952        F  0.21323113  0.25834420  0.56251405    -0.22900
C953        C  0.80858413  0.26474935  0.63279913    -0.05700
C954        C  0.81840766  0.23733412  0.67449208     0.00200
C955        C  0.86269564  0.21065428  0.67740699    -0.08400
C956        C  0.89632411  0.21444918  0.63938640    -0.05800
C957        C  0.88737008  0.24348094  0.59876650     0.00200
C958        C  0.84251836  0.26862528  0.59486643    -0.08300
C959        C  0.82991758  0.29794781  0.55023154     0.62100
H960        H  0.77399937  0.28354763  0.63044479     0.12800
H961        H  0.93048293  0.19465639  0.64167995     0.12800
C962        C  0.87679919  0.17707671  0.71858462     0.62300
F963        F  0.78264904  0.31553191  0.55174303    -0.22900
F964        F  0.83447273  0.26892124  0.50977875    -0.20200
F965        F  0.86094259  0.33713460  0.54634051    -0.19900
F966        F  0.88431003  0.13088043  0.70060075    -0.19900
F967        F  0.84205563  0.17425094  0.75438785    -0.20200
F968        F  0.91980951  0.19294371  0.73895466    -0.22900
C969        C  0.14843793  0.23199943  0.33161705    -0.05700
C970        C  0.19074785  0.25614342  0.34667301     0.00200
C971        C  0.19204604  0.27727626  0.39330798    -0.08400
C972        C  0.15027303  0.27471697  0.42234389    -0.05800
C973        C  0.10834900  0.25012538  0.40763346     0.00200
C974        C  0.10697797  0.22858453  0.36129812    -0.08300
C975        C  0.06136923  0.20414341  0.34241983     0.62100
H976        H  0.14798528  0.21617238  0.29592273     0.12800
H977        H  0.15069578  0.29177864  0.45745008     0.12800
C978        C  0.23584734  0.30224303  0.41522893     0.62300
F979        F  0.06601750  0.19094815  0.29439739    -0.22900
F980        F  0.02224515  0.23563123  0.34609285    -0.20200
F981        F  0.05197375  0.16270720  0.36897019    -0.19900
F982        F  0.22346208  0.34938418  0.42696151    -0.19900
F983        F  0.27577924  0.30329120  0.38507276    -0.20200
F984        F  0.24905854  0.27820876  0.45714442    -0.22900
loop_ 
_geom_bond_atom_site_label_1 
_geom_bond_atom_site_label_2 
_geom_bond_distance 
_geom_bond_site_symmetry_2 
_ccdc_geom_bond_type 
O1           Ni9   1.918   1_455  S
O1           C11   1.281       .  A
O2           Ni9   1.922       .  S
O2           C12   1.281       .  A
O3           Ni9   1.934   1_455  S
O3           C13   1.284       .  A
O4           Ni9   1.936       .  S
O4           C14   1.283       .  A
O5          Ni10   1.918       .  S
O5           C14   1.284       .  A
O6          Ni10   1.921   1_455  S
O6           C13   1.281       .  A
O7          Ni10   1.917       .  S
O7           C12   1.281       .  A
O8          Ni10   1.919   1_455  S
O8           C11   1.280       .  A
Ni9         Ni10   2.386       .  S
C11         C973   1.478       .  S
C12         C957   1.480       .  S
C13         C938   1.483       .  S
C14         C925   1.505       .  S
C15         C909   1.483       .  S
C15          C16   1.420       .  A
C15          C20   1.421       .  A
C16         C874   1.501       .  S
C16          C17   1.418       .  A
C17         C970   1.490       .  S
C17          C18   1.420       .  A
C18         C858   1.493       .  S
C18          C19   1.416       .  A
C19         C890   1.488       .  S
C19          C20   1.414       .  A
C20         C845   1.501       .  S
C21         C954   1.494       .  S
C21          C22   1.416       .  A
C21          C26   1.419       .  A
C22         C797   1.499       .  S
C22          C23   1.421       .  A
C23         C826   1.492       .  S
C23          C24   1.426       .  A
C24         C762   1.497       .  S
C24          C25   1.419       .  A
C25         C810   1.499       .  S
C25          C26   1.417       .  A
C26         C781   1.490       .  S
O27         Ni35   1.907       .  S
O27          C37   1.279       .  A
O28         Ni35   1.908   1_565  S
O28          C38   1.279       .  A
O29         Ni35   1.934       .  S
O29          C39   1.284       .  A
O30         Ni35   1.937   1_565  S
O30          C40   1.285       .  A
O31         Ni36   1.908   1_565  S
O31          C40   1.280       .  A
O32         Ni36   1.905       .  S
O32          C39   1.280       .  A
O33         Ni36   1.917   1_565  S
O33          C38   1.281       .  A
O34         Ni36   1.917       .  S
O34          C37   1.280       .  A
Ni35        Ni36   2.385       .  S
C37         C906   1.475       .  S
C38         C746   1.472       .  S
C39         C730   1.492       .  S
C40         C714   1.496       .  S
C41         C749   1.493       .  S
C41          C42   1.421       .  A
C41          C46   1.421       .  A
C42         C634   1.507       .  S
C42          C43   1.426       .  A
C43         C685   1.506       .  S
C43          C44   1.430       .  A
C44         C650   1.492       .  S
C44          C45   1.422       .  A
C45         C698   1.500       .  S
C45          C46   1.417       .  A
C46         C666   1.500       .  S
O47         Ni55   1.890       .  S
O47          C57   1.273       .  A
O48         Ni55   1.894   1_655  S
O48          C58   1.271       .  A
O49         Ni55   1.945       .  S
O49          C59   1.287       .  A
O50         Ni55   1.932   1_655  S
O50          C60   1.285       .  A
O51         Ni56   1.912   1_655  S
O51          C60   1.278       .  A
O52         Ni56   1.908       .  S
O52          C59   1.277       .  A
O53         Ni56   1.940   1_655  S
O53          C58   1.287       .  A
O54         Ni56   1.933       .  S
O54          C57   1.286       .  A
Ni55        Ni56   2.381       .  S
C57         C586   1.475       .  S
C58         C605   1.484       .  S
C59         C618   1.492       .  S
C60         C701   1.494       .  S
C61         C522   1.492       .  S
C61          C62   1.407       .  A
C61          C66   1.423       .  A
C62         C621   1.500       .  S
C62          C63   1.410       .  A
C63         C538   1.505       .  S
C63          C64   1.432       .  A
C64         C573   1.512       .  S
C64          C65   1.455       .  A
C65         C506   1.544       .  S
C65          C66   1.444       .  A
C66         C554   1.499       .  S
O67         Ni75   1.898       .  S
O67          C77   1.279       .  A
O68         Ni75   1.908   1_545  S
O68          C78   1.277       .  A
O69         Ni75   1.926       .  S
O69          C79   1.283       .  A
O70         Ni75   1.924   1_545  S
O70          C80   1.282       .  A
O71         Ni76   1.917       .  S
O71          C80   1.280       .  A
O72         Ni76   1.925   1_565  S
O72          C79   1.281       .  A
O73         Ni76   1.922       .  S
O73          C78   1.283       .  A
O74         Ni76   1.922   1_565  S
O74          C77   1.281       .  A
Ni75        Ni76   2.389   1_565  S
C77         C490   1.476       .  S
C78         C477   1.473       .  S
C79         C570   1.479       .  S
C80         C829   1.480       .  S
O81         Ni89   1.924   1_556  S
O81          C91   1.282       .  A
O82         Ni89   1.924       .  S
O82          C92   1.285       .  A
O83         Ni89   1.910       .  S
O83          C93   1.278       .  A
O84         Ni89   1.908   1_556  S
O84          C94   1.280       .  A
O85         Ni90   1.922   1_556  S
O85          C94   1.282       .  A
O86         Ni90   1.923       .  S
O86          C93   1.282       .  A
O87         Ni90   1.918       .  S
O87          C92   1.279       .  A
O88         Ni90   1.912   1_556  S
O88          C91   1.279       .  A
Ni89        Ni90   2.384       .  S
C91         C445   1.472       .  S
C92         C458   1.499       .  S
C93         C893   1.476       .  S
C94         C557   1.489       .  S
O95        Ni103   1.929       .  S
O95         C105   1.282       .  A
O96        Ni103   1.928   1_554  S
O96         C106   1.280       .  A
O97        Ni103   1.930       .  S
O97         C107   1.283       .  A
O98        Ni103   1.934   1_554  S
O98         C108   1.283       .  A
O99        Ni104   1.913   1_554  S
O99         C108   1.281       .  A
O100       Ni104   1.917       .  S
O100        C107   1.281       .  A
O101       Ni104   1.917   1_554  S
O101        C106   1.284       .  A
O102       Ni104   1.924       .  S
O102        C105   1.282       .  A
Ni103      Ni104   2.381       .  S
C105        C813   1.487       .  S
C106        C682   1.500       .  S
C107        C429   1.493       .  S
C108        C410   1.497       .  S
C109        C493   1.493       .  S
C109        C110   1.419       .  A
C109        C114   1.419       .  A
C110        C394   1.492       .  S
C110        C111   1.417       .  A
C111        C602   1.499       .  S
C111        C112   1.419       .  A
C112        C378   1.492       .  S
C112        C113   1.422       .  A
C113        C426   1.496       .  S
C113        C114   1.418       .  A
C114        C362   1.496       .  S
O115       Ni123   1.937   1_565  S
O115        C125   1.285       .  A
O116       Ni123   1.934       .  S
O116        C126   1.284       .  A
O117       Ni123   1.922       .  S
O117        C127   1.281       .  A
O118       Ni123   1.917   1_565  S
O118        C128   1.280       .  A
O119       Ni124   1.921   1_565  S
O119        C128   1.283       .  A
O120       Ni124   1.926       .  S
O120        C127   1.283       .  A
O121       Ni124   1.922       .  S
O121        C126   1.281       .  A
O122       Ni124   1.927   1_565  S
O122        C125   1.281       .  A
Ni123      Ni124   2.386       .  S
C125        C669   1.489       .  S
C126        C794   1.493       .  S
C127        C346   1.480       .  S
C128        C397   1.484       .  S
C129        C733   1.512       .  S
C129        C130   1.433       .  A
C129        C134   1.430       .  A
C130        C349   1.503       .  S
C130        C131   1.429       .  A
C131        C922   1.524       .  S
C131        C132   1.433       .  A
C132        C330   1.502       .  S
C132        C133   1.435       .  A
C133        C413   1.511       .  S
C133        C134   1.431       .  A
C134        C314   1.517       .  S
O135       Ni143   1.921   1_655  S
O135        C145   1.282       .  A
O136       Ni143   1.926       .  S
O136        C146   1.282       .  A
O137       Ni143   1.921       .  S
O137        C147   1.280       .  A
O138       Ni143   1.916   1_655  S
O138        C148   1.280       .  A
O139       Ni144   1.922   1_655  S
O139        C148   1.282       .  A
O140       Ni144   1.924       .  S
O140        C147   1.282       .  A
O141       Ni144   1.920       .  S
O141        C146   1.281       .  A
O142       Ni144   1.917   1_655  S
O142        C145   1.280       .  A
Ni143      Ni144   2.390       .  S
C145        C653   1.479       .  S
C146        C861   1.479       .  S
C147        C298   1.475       .  S
C148        C333   1.474       .  S
C149        C717   1.510       .  S
C149        C150   1.434       .  A
C149        C154   1.421       .  A
C150        C266   1.506       .  S
C150        C151   1.440       .  A
C151        C461   1.510       .  S
C151        C152   1.434       .  A
C152        C301   1.519       .  S
C152        C153   1.424       .  A
C153        C589   1.496       .  S
C153        C154   1.417       .  A
C154        C282   1.504       .  S
O155       Ni163   1.918       .  S
O155        C165   1.280       .  A
O156       Ni163   1.922   1_545  S
O156        C166   1.280       .  A
O157       Ni163   1.924       .  S
O157        C167   1.283       .  A
O158       Ni163   1.935   1_545  S
O158        C168   1.284       .  A
O159       Ni164   1.929   1_545  S
O159        C168   1.283       .  A
O160       Ni164   1.922       .  S
O160        C167   1.281       .  A
O161       Ni164   1.935   1_545  S
O161        C166   1.286       .  A
O162       Ni164   1.929       .  S
O162        C165   1.283       .  A
Ni163      Ni164   2.383       .  S
C165        C285   1.483       .  S
C166        C250   1.501       .  S
C167        C541   1.490       .  S
C168        C877   1.496       .  S
C169        C941   1.511       .  S
C169        C170   1.428       .  A
C169        C174   1.437       .  A
C170        C253   1.512       .  S
C170        C171   1.423       .  A
C171        C474   1.487       .  S
C171        C172   1.415       .  A
C172        C218   1.509       .  S
C172        C173   1.419       .  A
C173        C442   1.501       .  S
C173        C174   1.431       .  A
C174        C237   1.505       .  S
O175       Ni183   1.923   1_455  S
O175        C185   1.281       .  A
O176       Ni183   1.923       .  S
O176        C186   1.281       .  A
O177       Ni183   1.922   1_455  S
O177        C187   1.282       .  A
O178       Ni183   1.921       .  S
O178        C188   1.280       .  A
O179       Ni184   1.911       .  S
O179        C188   1.281       .  A
O180       Ni184   1.914   1_455  S
O180        C187   1.279       .  A
O181       Ni184   1.920       .  S
O181        C186   1.280       .  A
O182       Ni184   1.921   1_455  S
O182        C185   1.284       .  A
Ni183      Ni184   2.386       .  S
C185        C234   1.500       .  S
C186        C381   1.475       .  S
C187        C525   1.476       .  S
C188        C778   1.480       .  S
O189       Ni197   1.934   1_556  S
O189        C199   1.284       .  A
O190       Ni197   1.930       .  S
O190        C200   1.284       .  A
O191       Ni197   1.922       .  S
O191        C201   1.280       .  A
O192       Ni197   1.924   1_556  S
O192        C202   1.281       .  A
O193       Ni198   1.928   1_556  S
O193        C202   1.285       .  A
O194       Ni198   1.923       .  S
O194        C201   1.282       .  A
O195       Ni198   1.916       .  S
O195        C200   1.279       .  A
O196       Ni198   1.919   1_556  S
O196        C199   1.281       .  A
Ni197      Ni198   2.385       .  S
C199        C765   1.486       .  S
C200        C842   1.489       .  S
C201        C317   1.477       .  S
C202        C221   1.499       .  S
O203       Ni211   1.911       .  S
O203        C213   1.277       .  A
O204       Ni211   1.915   1_554  S
O204        C214   1.277       .  A
O205       Ni211   1.945       .  S
O205        C215   1.289       .  A
O206       Ni211   1.946   1_554  S
O206        C216   1.289       .  A
O207       Ni212   1.908   1_554  S
O207        C216   1.275       .  A
O208       Ni212   1.897       .  S
O208        C215   1.273       .  A
O209       Ni212   1.943   1_554  S
O209        C214   1.288       .  A
O210       Ni212   1.936       .  S
O210        C213   1.285       .  A
Ni211      Ni212   2.385       .  S
C213        C365   1.479       .  S
C214        C269   1.485       .  S
C215        C509   1.500       .  S
C216        C637   1.480       .  S
C217        C218   1.405       .  A
C217        C222   1.409       .  A
C217        H224   1.081       .  S
C218        C219   1.420       .  A
C219        C220   1.407       .  A
C219        C226   1.518       .  S
C220        C221   1.407       .  A
C220        H225   1.084       .  S
C221        C222   1.424       .  A
C222        C223   1.518       .  S
C223        F227   1.377       .  S
C223        F228   1.384       .  S
C223        F229   1.385       .  S
C226        F230   1.380       .  S
C226        F231   1.381       .  S
C226        F232   1.383       .  S
C233        C234   1.408       .  A
C233        C238   1.406       .  A
C233        H240   1.084       .  S
C234        C235   1.424       .  A
C235        C236   1.407       .  A
C235        C242   1.520       .  S
C236        C237   1.405       .  A
C236        H241   1.080       .  S
C237        C238   1.422       .  A
C238        C239   1.520       .  S
C239        F243   1.383       .  S
C239        F244   1.378       .  S
C239        F245   1.384       .  S
C242        F246   1.376       .  S
C242        F247   1.383       .  S
C242        F248   1.385       .  S
C249        C250   1.407       .  A
C249        C254   1.411       .  A
C249        H256   1.083       .  S
C250        C251   1.421       .  A
C251        C252   1.409       .  A
C251        C258   1.518       .  S
C252        C253   1.405       .  A
C252        H257   1.078       .  S
C253        C254   1.420       .  A
C254        C255   1.513       .  S
C255        F259   1.384       .  S
C255        F260   1.381       .  S
C255        F261   1.379       .  S
C258        F262   1.370       .  S
C258        F263   1.383       .  S
C258        F264   1.380       .  S
C265        C266   1.406       .  A
C265        C270   1.405       .  A
C265        H272   1.084       .  S
C266        C267   1.427       .  A
C267        C268   1.410       .  A
C267        C274   1.519       .  S
C268        C269   1.401       .  A
C268        H273   1.085       .  S
C269        C270   1.420       .  A
C270        C271   1.518       .  S
C271        F275   1.382       .  S
C271        F276   1.379       .  S
C271        F277   1.379       .  S
C274        F278   1.384       .  S
C274        F279   1.378       .  S
C274        F280   1.383       .  S
C281        C282   1.403       .  A
C281        C286   1.405       .  A
C281        H288   1.081       .  S
C282        C283   1.426       .  A
C283        C284   1.408       .  A
C283        C290   1.515       .  S
C284        C285   1.400       .  A
C284        H289   1.085       .  S
C285        C286   1.417       .  A
C286        C287   1.517       .  S
C287        F291   1.385       .  S
C287        F292   1.382       .  S
C287        F293   1.381       .  S
C290        F294   1.384       .  S
C290        F295   1.377       .  S
C290        F296   1.382       .  S
C297        C298   1.400       .  A
C297        C302   1.409       .  A
C297        H304   1.085       .  S
C298        C299   1.412       .  A
C299        C300   1.403       .  A
C299        C306   1.518       .  S
C300        C301   1.410       .  A
C300        H305   1.080       .  S
C301        C302   1.427       .  A
C302        C303   1.511       .  S
C303        F307   1.384       .  S
C303        F308   1.376       .  S
C303        F309   1.381       .  S
C306        F310   1.380       .  S
C306        F311   1.383       .  S
C306        F312   1.379       .  S
C313        C314   1.412       .  A
C313        C318   1.410       .  A
C313        H320   1.082       .  S
C314        C315   1.432       .  A
C315        C316   1.406       .  A
C315        C322   1.514       .  S
C316        C317   1.395       .  A
C316        H321   1.085       .  S
C317        C318   1.410       .  A
C318        C319   1.516       .  S
C319        F323   1.384       .  S
C319        F324   1.384       .  S
C319        F325   1.383       .  S
C322        F326   1.369       .  S
C322        F327   1.381       .  S
C322        F328   1.384       .  S
C329        C330   1.412       .  A
C329        C334   1.410       .  A
C329        H336   1.083       .  S
C330        C331   1.425       .  A
C331        C332   1.396       .  A
C331        C338   1.514       .  S
C332        C333   1.389       .  A
C332        H337   1.072       .  S
C333        C334   1.411       .  A
C334        C335   1.514       .  S
C335        F339   1.384       .  S
C335        F340   1.384       .  S
C335        F341   1.382       .  S
C338        F342   1.384       .  S
C338        F343   1.368       .  S
C338        F344   1.383       .  S
C345        C346   1.388       .  A
C345        C350   1.394       .  A
C345        H352   1.079       .  S
C346        C347   1.412       .  A
C347        C348   1.415       .  A
C347        C354   1.515       .  S
C348        C349   1.414       .  A
C348        H353   1.084       .  S
C349        C350   1.422       .  A
C350        C351   1.518       .  S
C351        F355   1.384       .  S
C351        F356   1.370       .  S
C351        F357   1.382       .  S
C354        F358   1.383       .  S
C354        F359   1.383       .  S
C354        F360   1.384       .  S
C361        C362   1.401       .  A
C361        C366   1.400       .  A
C361        H368   1.080       .  S
C362        C363   1.423       .  A
C363        C364   1.411       .  A
C363        C370   1.519       .  S
C364        C365   1.403       .  A
C364        H369   1.085       .  S
C365        C366   1.410       .  A
C366        C367   1.509       .  S
C367        F371   1.384       .  S
C367        F372   1.383       .  S
C367        F373   1.384       .  S
C370        F374   1.383       .  S
C370        F375   1.381       .  S
C370        F376   1.383       .  S
C377        C378   1.405       .  A
C377        C382   1.404       .  A
C377        H384   1.082       .  S
C378        C379   1.422       .  A
C379        C380   1.404       .  A
C379        C386   1.518       .  S
C380        C381   1.398       .  A
C380        H385   1.080       .  S
C381        C382   1.411       .  A
C382        C383   1.512       .  S
C383        F387   1.385       .  S
C383        F388   1.383       .  S
C383        F389   1.382       .  S
C386        F390   1.383       .  S
C386        F391   1.379       .  S
C386        F392   1.383       .  S
C393        C394   1.402       .  A
C393        C398   1.407       .  A
C393        H400   1.082       .  S
C394        C395   1.420       .  A
C395        C396   1.400       .  A
C395        C402   1.518       .  S
C396        C397   1.401       .  A
C396        H401   1.081       .  S
C397        C398   1.420       .  A
C398        C399   1.517       .  S
C399        F403   1.385       .  S
C399        F404   1.376       .  S
C399        F405   1.382       .  S
C402        F406   1.380       .  S
C402        F407   1.375       .  S
C402        F408   1.382       .  S
C409        C410   1.403       .  A
C409        C414   1.402       .  A
C409        H416   1.085       .  S
C410        C411   1.420       .  A
C411        C412   1.410       .  A
C411        C418   1.513       .  S
C412        C413   1.407       .  A
C412        H417   1.082       .  S
C413        C414   1.426       .  A
C414        C415   1.514       .  S
C415        F419   1.383       .  S
C415        F420   1.369       .  S
C415        F421   1.383       .  S
C418        F422   1.382       .  S
C418        F423   1.378       .  S
C418        F424   1.385       .  S
C425        C426   1.402       .  A
C425        C430   1.408       .  A
C425        H432   1.082       .  S
C426        C427   1.420       .  A
C427        C428   1.407       .  A
C427        C434   1.521       .  S
C428        C429   1.407       .  A
C428        H433   1.085       .  S
C429        C430   1.420       .  A
C430        C431   1.517       .  S
C431        F435   1.385       .  S
C431        F436   1.382       .  S
C431        F437   1.382       .  S
C434        F438   1.384       .  S
C434        F439   1.381       .  S
C434        F440   1.383       .  S
C441        C442   1.408       .  A
C441        C446   1.402       .  A
C441        H448   1.081       .  S
C442        C443   1.426       .  A
C443        C444   1.409       .  A
C443        C450   1.519       .  S
C444        C445   1.400       .  A
C444        H449   1.085       .  S
C445        C446   1.408       .  A
C446        C447   1.515       .  S
C447        F451   1.383       .  S
C447        F452   1.381   1_556  S
C447        F453   1.384   1_556  S
C450        F454   1.380       .  S
C450        F455   1.384       .  S
C450        F456   1.383       .  S
C457        C458   1.405       .  A
C457        C462   1.405       .  A
C457        H464   1.084       .  S
C458        C459   1.424       .  A
C459        C460   1.407       .  A
C459        C466   1.520       .  S
C460        C461   1.408       .  A
C460        H465   1.081       .  S
C461        C462   1.423       .  A
C462        C463   1.514       .  S
C463        F467   1.383       .  S
C463        F468   1.378       .  S
C463        F469   1.379       .  S
C466        F470   1.383       .  S
C466        F471   1.378       .  S
C466        F472   1.386       .  S
C473        C474   1.403       .  A
C473        C478   1.405       .  A
C473        H480   1.081       .  S
C474        C475   1.422       .  A
C475        C476   1.402       .  A
C475        C482   1.524       .  S
C476        C477   1.401       .  A
C476        H481   1.081       .  S
C477        C478   1.414       .  A
C478        C479   1.521       .  S
C479        F483   1.383       .  S
C479        F484   1.376       .  S
C479        F485   1.384       .  S
C482        F486   1.383       .  S
C482        F487   1.380       .  S
C482        F488   1.381       .  S
C489        C490   1.401       .  A
C489        C494   1.397       .  A
C489        H496   1.086       .  S
C490        C491   1.415       .  A
C491        C492   1.406       .  A
C491        C498   1.519       .  S
C492        C493   1.407       .  A
C492        H497   1.080       .  S
C493        C494   1.422       .  A
C494        C495   1.518       .  S
C495        F499   1.383       .  S
C495        F500   1.383       .  S
C495        F501   1.375       .  S
C498        F502   1.382       .  S
C498        F503   1.383       .  S
C498        F504   1.385       .  S
C505        C506   1.401       .  A
C505        C510   1.412       .  A
C505        H512   1.076       .  S
C506        C507   1.414       .  A
C507        C508   1.406       .  A
C507        C514   1.526       .  S
C508        C509   1.412       .  A
C508        H513   1.084       .  S
C509        C510   1.439       .  A
C510        C511   1.521       .  S
C511        F515   1.385       .  S
C511        F516   1.383       .  S
C511        F517   1.383       .  S
C514        F518   1.381       .  S
C514        F519   1.380       .  S
C514        F520   1.387       .  S
C521        C522   1.401       .  A
C521        C526   1.404       .  A
C521        H528   1.081       .  S
C522        C523   1.423       .  A
C523        C524   1.401       .  A
C523        C530   1.520       .  S
C524        C525   1.398       .  A
C524        H529   1.080       .  S
C525        C526   1.414       .  A
C526        C527   1.511       .  S
C527        F531   1.382       .  S
C527        F532   1.384       .  S
C527        F533   1.384       .  S
C530        F534   1.382       .  S
C530        F535   1.381       .  S
C530        F536   1.382       .  S
C537        C538   1.405       .  A
C537        C542   1.405       .  A
C537        H544   1.080       .  S
C538        C539   1.418       .  A
C539        C540   1.408       .  A
C539        C546   1.515       .  S
C540        C541   1.407       .  A
C540        H545   1.084       .  S
C541        C542   1.419       .  A
C542        C543   1.520       .  S
C543        F547   1.385       .  S
C543        F548   1.383       .  S
C543        F549   1.381       .  S
C546        F550   1.378       .  S
C546        F551   1.383       .  S
C546        F552   1.383       .  S
C553        C554   1.404       .  A
C553        C558   1.405       .  A
C553        H560   1.077       .  S
C554        C555   1.417       .  A
C555        C556   1.405       .  A
C555        C562   1.516       .  S
C556        C557   1.408       .  A
C556        H561   1.084       .  S
C557        C558   1.420       .  A
C558        C559   1.517       .  S
C559        F563   1.383       .  S
C559        F564   1.379       .  S
C559        F565   1.383       .  S
C562        F566   1.382       .  S
C562        F567   1.380       .  S
C562        F568   1.385       .  S
C569        C570   1.404       .  A
C569        C574   1.411       .  A
C569        H576   1.085       .  S
C570        C571   1.415       .  A
C571        C572   1.401       .  A
C571        C578   1.518       .  S
C572        C573   1.408       .  A
C572        H577   1.082       .  S
C573        C574   1.427       .  A
C574        C575   1.517       .  S
C575        F579   1.383       .  S
C575        F580   1.374       .  S
C575        F581   1.383       .  S
C578        F582   1.380       .  S
C578        F583   1.379       .  S
C578        F584   1.383       .  S
C585        C586   1.401       .  A
C585        C590   1.405       .  A
C585        H592   1.085       .  S
C586        C587   1.420       .  A
C587        C588   1.399       .  A
C587        C594   1.522       .  S
C588        C589   1.400       .  A
C588        H593   1.078       .  S
C589        C590   1.418       .  A
C590        C591   1.513       .  S
C591        F595   1.384       .  S
C591        F596   1.380       .  S
C591        F597   1.381       .  S
C594        F598   1.383       .  S
C594        F599   1.381       .  S
C594        F600   1.384       .  S
C601        C602   1.396       .  A
C601        C606   1.400       .  A
C601        H608   1.078       .  S
C602        C603   1.417       .  A
C603        C604   1.409       .  A
C603        C610   1.513       .  S
C604        C605   1.406       .  A
C604        H609   1.084       .  S
C605        C606   1.429       .  A
C606        C607   1.526       .  S
C607        F611   1.381       .  S
C607        F612   1.368       .  S
C607        F613   1.385       .  S
C610        F614   1.384       .  S
C610        F615   1.379       .  S
C610        F616   1.381       .  S
C617        C618   1.407       .  A
C617        C622   1.409       .  A
C617        H624   1.085       .  S
C618        C619   1.416       .  A
C619        C620   1.402       .  A
C619        C626   1.507       .  S
C620        C621   1.399       .  A
C620        H625   1.078       .  S
C621        C622   1.419       .  A
C622        C623   1.516       .  S
C623        F627   1.384       .  S
C623        F628   1.379       .  S
C623        F629   1.383       .  S
C626        F630   1.385       .  S
C626        F631   1.381       .  S
C626        F632   1.381       .  S
C633        C634   1.407       .  A
C633        C638   1.403       .  A
C633        H640   1.075       .  S
C634        C635   1.422       .  A
C635        C636   1.409       .  A
C635        C642   1.511       .  S
C636        C637   1.401       .  A
C636        H641   1.076       .  S
C637        C638   1.404       .  A
C638        C639   1.518       .  S
C639        F643   1.383       .  S
C639        F644   1.380       .  S
C639        F645   1.378       .  S
C642        F646   1.378       .  S
C642        F647   1.379       .  S
C642        F648   1.384       .  S
C649        C650   1.405       .  A
C649        C654   1.406       .  A
C649        H656   1.080       .  S
C650        C651   1.421       .  A
C651        C652   1.406       .  A
C651        C658   1.521       .  S
C652        C653   1.403       .  A
C652        H657   1.082       .  S
C653        C654   1.413       .  A
C654        C655   1.521       .  S
C655        F659   1.385       .  S
C655        F660   1.383       .  S
C655        F661   1.375   1_655  S
C658        F662   1.383       .  S
C658        F663   1.380       .  S
C658        F664   1.383       .  S
C665        C666   1.401       .  A
C665        C670   1.400       .  A
C665        H672   1.082       .  S
C666        C667   1.426       .  A
C667        C668   1.409       .  A
C667        C674   1.517       .  S
C668        C669   1.400       .  A
C668        H673   1.078       .  S
C669        C670   1.410       .  A
C670        C671   1.500       .  S
C671        F675   1.385       .  S
C671        F676   1.383       .  S
C671        F677   1.382       .  S
C674        F678   1.377       .  S
C674        F679   1.383       .  S
C674        F680   1.382       .  S
C681        C682   1.403       .  A
C681        C686   1.401       .  A
C681        H688   1.085       .  S
C682        C683   1.425       .  A
C683        C684   1.413       .  A
C683        C690   1.518       .  S
C684        C685   1.408       .  A
C684        H689   1.083       .  S
C685        C686   1.422       .  A
C686        C687   1.514       .  S
C687        F691   1.378       .  S
C687        F692   1.376       .  S
C687        F693   1.382       .  S
C690        F694   1.376       .  S
C690        F695   1.383       .  S
C690        F696   1.385       .  S
C697        C698   1.400       .  A
C697        C702   1.407       .  A
C697        H704   1.078       .  S
C698        C699   1.418       .  A
C699        C700   1.407       .  A
C699        C706   1.517       .  S
C700        C701   1.406       .  A
C700        H705   1.083       .  S
C701        C702   1.424       .  A
C702        C703   1.522       .  S
C703        F707   1.385       .  S
C703        F708   1.383       .  S
C703        F709   1.383       .  S
C706        F710   1.383       .  S
C706        F711   1.381       .  S
C706        F712   1.384       .  S
C713        C714   1.404       .  A
C713        C718   1.403       .  A
C713        H720   1.085       .  S
C714        C715   1.419       .  A
C715        C716   1.414       .  A
C715        C722   1.517       .  S
C716        C717   1.410       .  A
C716        H721   1.082       .  S
C717        C718   1.423       .  A
C718        C719   1.512       .  S
C719        F723   1.383       .  S
C719        F724   1.383       .  S
C719        F725   1.370       .  S
C722        F726   1.383       .  S
C722        F727   1.382       .  S
C722        F728   1.385       .  S
C729        C730   1.403       .  A
C729        C734   1.401       .  A
C729        H736   1.085       .  S
C730        C731   1.418       .  A
C731        C732   1.411       .  A
C731        C738   1.517       .  S
C732        C733   1.410       .  A
C732        H737   1.082       .  S
C733        C734   1.425       .  A
C734        C735   1.516       .  S
C735        F739   1.384       .  S
C735        F740   1.369       .  S
C735        F741   1.383       .  S
C738        F742   1.383       .  S
C738        F743   1.383       .  S
C738        F744   1.385       .  S
C745        C746   1.398       .  A
C745        C750   1.400       .  A
C745        H752   1.084       .  S
C746        C747   1.415       .  A
C747        C748   1.405       .  A
C747        C754   1.517       .  S
C748        C749   1.404       .  A
C748        H753   1.082       .  S
C749        C750   1.421       .  A
C750        C751   1.517       .  S
C751        F755   1.380       .  S
C751        F756   1.379       .  S
C751        F757   1.384       .  S
C754        F758   1.383       .  S
C754        F759   1.382       .  S
C754        F760   1.384       .  S
C761        C762   1.405       .  A
C761        C766   1.409       .  A
C761        H768   1.082       .  S
C762        C763   1.422       .  A
C763        C764   1.406       .  A
C763        C770   1.516       .  S
C764        C765   1.402       .  A
C764        H769   1.085       .  S
C765        C766   1.415       .  A
C766        C767   1.512       .  S
C767        F771   1.385       .  S
C767        F772   1.382       .  S
C767        F773   1.383       .  S
C770        F774   1.383       .  S
C770        F775   1.378       .  S
C770        F776   1.382       .  S
C777        C778   1.401       .  A
C777        C782   1.399       .  A
C777        H784   1.085       .  S
C778        C779   1.417       .  A
C779        C780   1.407       .  A
C779        C786   1.516       .  S
C780        C781   1.405       .  A
C780        H785   1.082       .  S
C781        C782   1.419       .  A
C782        C783   1.516       .  S
C783        F787   1.382       .  S
C783        F788   1.377       .  S
C783        F789   1.383       .  S
C786        F790   1.382       .  S
C786        F791   1.379       .  S
C786        F792   1.385       .  S
C793        C794   1.404       .  A
C793        C798   1.413       .  A
C793        H800   1.084       .  S
C794        C795   1.420       .  A
C795        C796   1.403       .  A
C795        C802   1.512       .  S
C796        C797   1.398       .  A
C796        H801   1.077       .  S
C797        C798   1.423       .  A
C798        C799   1.517       .  S
C799        F803   1.383       .  S
C799        F804   1.380       .  S
C799        F805   1.384       .  S
C802        F806   1.382       .  S
C802        F807   1.378       .  S
C802        F808   1.385       .  S
C809        C810   1.400       .  A
C809        C814   1.405       .  A
C809        H816   1.076       .  S
C810        C811   1.422       .  A
C811        C812   1.411       .  A
C811        C818   1.519       .  S
C812        C813   1.404       .  A
C812        H817   1.083       .  S
C813        C814   1.416       .  A
C814        C815   1.516       .  S
C815        F819   1.384       .  S
C815        F820   1.380       .  S
C815        F821   1.382       .  S
C818        F822   1.383       .  S
C818        F823   1.381       .  S
C818        F824   1.384       .  S
C825        C826   1.402       .  A
C825        C830   1.405       .  A
C825        H832   1.081       .  S
C826        C827   1.422       .  A
C827        C828   1.406       .  A
C827        C834   1.516       .  S
C828        C829   1.401       .  A
C828        H833   1.085       .  S
C829        C830   1.416       .  A
C830        C831   1.515       .  S
C831        F835   1.385       .  S
C831        F836   1.381       .  S
C831        F837   1.382       .  S
C834        F838   1.377       .  S
C834        F839   1.383       .  S
C834        F840   1.383       .  S
C841        C842   1.403       .  A
C841        C846   1.408       .  A
C841        H848   1.084       .  S
C842        C843   1.419       .  A
C843        C844   1.408       .  A
C843        C850   1.519       .  S
C844        C845   1.404       .  A
C844        H849   1.081       .  S
C845        C846   1.422       .  A
C846        C847   1.517       .  S
C847        F851   1.383       .  S
C847        F852   1.378       .  S
C847        F853   1.383       .  S
C850        F854   1.382       .  S
C850        F855   1.382       .  S
C850        F856   1.384       .  S
C857        C858   1.400       .  A
C857        C862   1.401       .  A
C857        H864   1.081       .  S
C858        C859   1.424       .  A
C859        C860   1.407       .  A
C859        C866   1.515       .  S
C860        C861   1.398       .  A
C860        H865   1.085       .  S
C861        C862   1.412       .  A
C862        C863   1.505       .  S
C863        F867   1.385       .  S
C863        F868   1.383       .  S
C863        F869   1.383       .  S
C866        F870   1.378       .  S
C866        F871   1.382       .  S
C866        F872   1.383       .  S
C873        C874   1.400       .  A
C873        C878   1.406       .  A
C873        H880   1.078       .  S
C874        C875   1.423       .  A
C875        C876   1.412       .  A
C875        C882   1.517       .  S
C876        C877   1.404       .  A
C876        H881   1.085       .  S
C877        C878   1.418       .  A
C878        C879   1.508       .  S
C879        F883   1.385       .  S
C879        F884   1.382       .  S
C879        F885   1.383       .  S
C882        F886   1.383       .  S
C882        F887   1.380       .  S
C882        F888   1.383       .  S
C889        C890   1.400       .  A
C889        C894   1.404       .  A
C889        H896   1.078       .  S
C890        C891   1.420       .  A
C891        C892   1.403       .  A
C891        C898   1.519       .  S
C892        C893   1.399       .  A
C892        H897   1.081       .  S
C893        C894   1.417       .  A
C894        C895   1.519       .  S
C895        F899   1.384       .  S
C895        F900   1.382       .  S
C895        F901   1.382       .  S
C898        F902   1.383       .  S
C898        F903   1.380       .  S
C898        F904   1.384       .  S
C905        C906   1.403       .  A
C905        C910   1.400       .  A
C905        H912   1.085       .  S
C906        C907   1.416       .  A
C907        C908   1.404       .  A
C907        C914   1.518       .  S
C908        C909   1.403       .  A
C908        H913   1.081       .  S
C909        C910   1.417       .  A
C910        C911   1.518       .  S
C911        F915   1.384       .  S
C911        F916   1.378       .  S
C911        F917   1.383       .  S
C914        F918   1.383       .  S
C914        F919   1.382       .  S
C914        F920   1.385       .  S
C921        C922   1.412       .  A
C921        C926   1.419       .  A
C921        H928   1.081       .  S
C922        C923   1.429       .  A
C923        C924   1.402       .  A
C923        C930   1.513       .  S
C924        C925   1.401       .  A
C924        H929   1.085       .  S
C925        C926   1.423       .  A
C926        C927   1.517       .  S
C927        F931   1.385       .  S
C927        F932   1.383       .  S
C927        F933   1.380       .  S
C930        F934   1.383       .  S
C930        F935   1.367       .  S
C930        F936   1.383       .  S
C937        C938   1.398       .  A
C937        C942   1.409       .  A
C937        H944   1.085       .  S
C938        C939   1.413       .  A
C939        C940   1.410       .  A
C939        C946   1.513       .  S
C940        C941   1.409       .  A
C940        H945   1.083       .  S
C941        C942   1.427       .  A
C942        C943   1.514       .  S
C943        F947   1.383       .  S
C943        F948   1.382       .  S
C943        F949   1.375       .  S
C946        F950   1.382       .  S
C946        F951   1.383       .  S
C946        F952   1.384       .  S
C953        C954   1.404       .  A
C953        C958   1.407       .  A
C953        H960   1.082       .  S
C954        C955   1.421       .  A
C955        C956   1.404       .  A
C955        C962   1.517       .  S
C956        C957   1.400       .  A
C956        H961   1.085       .  S
C957        C958   1.415       .  A
C958        C959   1.515       .  S
C959        F963   1.384       .  S
C959        F964   1.383       .  S
C959        F965   1.382       .  S
C962        F966   1.383       .  S
C962        F967   1.377       .  S
C962        F968   1.382       .  S
C969        C970   1.405       .  A
C969        C974   1.407       .  A
C969        H976   1.081       .  S
C970        C971   1.418       .  A
C971        C972   1.402       .  A
C971        C978   1.516       .  S
C972        C973   1.399       .  A
C972        H977   1.081       .  S
C973        C974   1.415       .  A
C974        C975   1.518       .  S
C975        F979   1.385       .  S
C975        F980   1.383       .  S
C975        F981   1.382       .  S
C978        F982   1.382       .  S
C978        F983   1.378       .  S
C978        F984   1.383       .  S
