geometry optimzed in LAMMPS
_audit_creation_date              2020-11-30 
_audit_creation_method            'lammps2cif' 
_symmetry_space_group_name_H-M    'P1' 
_symmetry_Int_Tables_number       1 
_symmetry_cell_setting            triclinic 
loop_ 
_symmetry_equiv_pos_as_xyz 
  x,y,z 
_cell_length_a                    34.68067493 
_cell_length_b                    34.673091299220616 
_cell_length_c                    34.719548373507564 
_cell_angle_alpha                 90.01601349704518 
_cell_angle_beta                  90.01898797295459 
_cell_angle_gamma                 90.01580520253174 
loop_ 
_atom_site_label 
_atom_site_type_symbol 
_atom_site_fract_x 
_atom_site_fract_y 
_atom_site_fract_z 
_atom_site_charge 
Zn1        Zn  0.59282608  0.85109773  0.12671781     1.49700
Zn2        Zn  0.64854913  0.84643291  0.05875370     1.49400
Zn3        Zn  0.59986709  0.91980213  0.06558942     1.49100
Zn4        Zn  0.66735399  0.90410059  0.12564513     1.49500
O5          O  0.62679758  0.88108238  0.09521952    -1.83100
O6          O  0.60281172  0.79334853  0.12342714    -0.73800
O7          O  0.62385634  0.85154062  0.00859442    -0.73600
O8          O  0.54208520  0.90772454  0.06665431    -0.73100
O9          O  0.64459091  0.79167675  0.07505511    -0.73800
O10         O  0.53906980  0.86044552  0.11016352    -0.73400
O11         O  0.61992659  0.91553798  0.00914448    -0.74000
O12         O  0.65853409  0.96080975  0.13022082    -0.73400
O13         O  0.70278686  0.85960268  0.04776733    -0.74100
O14         O  0.60765944  0.97242194  0.09284093    -0.73500
O15         O  0.72026484  0.89412512  0.09902235    -0.74000
O16         O  0.65949394  0.88962556  0.18212454    -0.73900
O17         O  0.59851151  0.86871309  0.18090380    -0.73700
C18         C  0.62445068  0.77464277  0.10044455     0.78100
C19         C  0.62404962  0.88352868  0.49106070     0.78600
C20         C  0.52300302  0.88336820  0.08658758     0.77600
C21         C  0.63232422  0.98327429  0.11807921     0.78000
C22         C  0.72807082  0.87783983  0.06671709     0.79100
C23         C  0.62774451  0.88128461  0.19906424     0.78100
Zn24       Zn  0.65120591  0.84454115  0.30978657     1.49700
Zn25       Zn  0.66782664  0.90411734  0.37577401     1.49400
Zn26       Zn  0.59989539  0.91858555  0.31582262     1.49100
Zn27       Zn  0.59366105  0.85011876  0.37691562     1.49500
O28         O  0.62786010  0.88000235  0.34514279    -1.83100
O29         O  0.70649012  0.85558291  0.30097430    -0.73800
O30         O  0.65846151  0.96059437  0.37984935    -0.73600
O31         O  0.61828443  0.91388084  0.25905647    -0.73100
O32         O  0.72089122  0.89605440  0.34860156    -0.73800
O33         O  0.62949955  0.85052884  0.25822188    -0.73400
O34         O  0.60771389  0.97189147  0.34230874    -0.74000
O35         O  0.53956146  0.85902201  0.36087546    -0.73400
O36         O  0.65948937  0.89084230  0.43272857    -0.74100
O37         O  0.54210492  0.90646074  0.31763595    -0.73500
O38         O  0.59917865  0.86813019  0.43080114    -0.74000
O39         O  0.60335878  0.79235722  0.37426881    -0.73900
O40         O  0.64494874  0.79013899  0.32576619    -0.73700
C41         C  0.73037509  0.87719016  0.31815109     0.78100
C42         C  0.63237018  0.98300130  0.36746203     0.78600
C43         C  0.62530297  0.88239342  0.24091681     0.77600
C44         C  0.52320956  0.88198866  0.33756787     0.78000
C45         C  0.62766230  0.88190011  0.44925880     0.79100
C46         C  0.62463668  0.77339784  0.35118191     0.78100
Zn47       Zn  0.83270437  0.89928548  0.49759400     1.49700
Zn48       Zn  0.90594624  0.84204143  0.49727544     1.49400
Zn49       Zn  0.90234120  0.91017339  0.05768328     1.49100
Zn50       Zn  0.84455846  0.83906340  0.06268406     1.49500
O51         O  0.87204765  0.87323356  0.02862443    -1.83100
O52         O  0.83961898  0.88500015  0.44173362    -0.73800
O53         O  0.96201204  0.85160184  0.01000736    -0.73600
O54         O  0.89322945  0.96409482  0.03360338    -0.73100
O55         O  0.89786446  0.85735317  0.44288666    -0.73800
O56         O  0.84488731  0.95496793  0.99245542    -0.73400
O57         O  0.96056588  0.89948228  0.05252026    -0.74000
O58         O  0.86200147  0.84371803  0.11567418    -0.73400
O59         O  0.89448508  0.78494468  0.00254566    -0.74100
O60         O  0.88730705  0.90300458  0.11478174    -0.73500
O61         O  0.84776611  0.78411881  0.04645503    -0.74000
O62         O  0.79055329  0.85405633  0.06985909    -0.73900
O63         O  0.77805646  0.89426578  0.02176516    -0.73700
C64         C  0.87009365  0.87305274  0.42485101     0.78100
C65         C  0.97936491  0.87544729  0.03192460     0.78600
C66         C  0.87061805  0.97639356  0.00705056     0.77600
C67         C  0.87376566  0.87365118  0.13287493     0.78000
C68         C  0.87004097  0.76688734  0.02309411     0.79100
C69         C  0.76769761  0.87616082  0.05220618     0.78100
Zn70       Zn  0.90760519  0.90241144  0.24523348     1.49700
Zn71       Zn  0.90322412  0.84151073  0.31031763     1.49400
Zn72       Zn  0.84811576  0.91541788  0.31118348     1.49100
Zn73       Zn  0.83444379  0.84711045  0.25006671     1.49500
O74         O  0.87269246  0.87603362  0.27921613    -1.83100
O75         O  0.96255715  0.89570334  0.26001794    -0.73800
O76         O  0.88847547  0.84892305  0.36489469    -0.73600
O77         O  0.85465271  0.96988727  0.28801060    -0.73100
O78         O  0.96069807  0.85020348  0.30497432    -0.73800
O79         O  0.89484864  0.95727873  0.23982609    -0.73400
O80         O  0.86257893  0.90786551  0.36681813    -0.74000
O81         O  0.78075680  0.85762473  0.27485266    -0.73400
O82         O  0.89198143  0.78672674  0.29688347    -0.74100
O83         O  0.79235922  0.90471521  0.31684129    -0.73500
O84         O  0.84364272  0.78877724  0.25490316    -0.74000
O85         O  0.84247235  0.86084198  0.19259675    -0.73900
O86         O  0.90191084  0.88571193  0.19226150    -0.73700
C87         C  0.97947814  0.87309549  0.28333875     0.78100
C88         C  0.87370263  0.87691404  0.38333197     0.78600
C89         C  0.87335983  0.98035499  0.25803355     0.77600
C90         C  0.76978806  0.88004049  0.30219704     0.78000
C91         C  0.86774849  0.76979543  0.27517767     0.79100
C92         C  0.87238088  0.87351148  0.17476927     0.78100
Zn93       Zn  0.90675921  0.09849632  0.25457028     1.49700
Zn94       Zn  0.84896244  0.08281237  0.18738743     1.49400
Zn95       Zn  0.83469983  0.14874915  0.24955947     1.49100
Zn96       Zn  0.90254512  0.15617613  0.18769178     1.49500
O97         O  0.87257013  0.12210916  0.21896262    -1.83100
O98         O  0.89232360  0.04438579  0.26404108    -0.73800
O99         O  0.79299209  0.09461638  0.18043522    -0.73600
O100        O  0.83995076  0.12944913  0.30603896    -0.73100
O101        O  0.85627485  0.02945991  0.21303013    -0.73800
O102        O  0.90362132  0.12224081  0.30520542    -0.73400
O103        O  0.78219106  0.14094210  0.22350536    -0.74000
O104        O  0.89246967  0.21006569  0.20305846    -0.73400
O105        O  0.86649765  0.08918612  0.13211580    -0.74100
O106        O  0.84538468  0.20665902  0.24672870    -0.73500
O107        O  0.88546274  0.15072826  0.13325730    -0.74000
O108        O  0.96008140  0.14581955  0.19218033    -0.73900
O109        O  0.96117645  0.10166119  0.23850235    -0.73700
C110        C  0.87290897  0.02028473  0.24471646     0.78100
C111        C  0.77100866  0.11972667  0.19544748     0.78600
C112        C  0.87213295  0.12394180  0.32340167     0.77600
C113        C  0.86889395  0.22598313  0.22605250     0.78000
C114        C  0.87420823  0.12097696  0.11512991     0.79100
C115        C  0.97843911  0.12300818  0.21436511     0.78100
Zn116      Zn  0.91040620  0.09367763  0.00349229     1.49700
Zn117      Zn  0.84937691  0.08173514  0.43787338     1.49400
Zn118      Zn  0.83797081  0.15027082  0.49810696     1.49100
Zn119      Zn  0.90691220  0.15439357  0.43782780     1.49500
O120        O  0.87570516  0.12047776  0.46911208    -1.83100
O121        O  0.89802304  0.03833729  0.00916729    -0.73800
O122        O  0.79357812  0.09400446  0.43248265    -0.73600
O123        O  0.84361911  0.13517347  0.05536278    -0.73100
O124        O  0.85465606  0.02763298  0.46325326    -0.73800
O125        O  0.90366740  0.11173795  0.05619282    -0.73400
O126        O  0.78425638  0.14211378  0.47371320    -0.74000
O127        O  0.89695713  0.20989325  0.45081101    -0.73400
O128        O  0.86322704  0.08920724  0.38155810    -0.74100
O129        O  0.84852828  0.20819000  0.49272985    -0.73500
O130        O  0.89030782  0.14768107  0.38345117    -0.74000
O131        O  0.96461792  0.14346727  0.44307258    -0.73900
O132        O  0.96567253  0.09932780  0.98948725    -0.73700
C133        C  0.87450998  0.01613225  0.49227463     0.78100
C134        C  0.77214390  0.11985221  0.44685626     0.78600
C135        C  0.87342887  0.12276326  0.07335778     0.77600
C136        C  0.87255947  0.22702009  0.47219427     0.78000
C137        C  0.87441951  0.12025121  0.36507431     0.79100
C138        C  0.98291398  0.12068368  0.46536237     0.78100
Zn139      Zn  0.66774753  0.10170582  0.12370248     1.49700
Zn140      Zn  0.65449145  0.16173448  0.18929991     1.49400
Zn141      Zn  0.59412469  0.15655424  0.12383849     1.49100
Zn142      Zn  0.60080280  0.08774816  0.18471714     1.49500
O143        O  0.62867845  0.12643523  0.15513972    -1.83100
O144        O  0.72118785  0.10617560  0.14953721    -0.73800
O145        O  0.64899535  0.21696535  0.17378570    -0.73600
O146        O  0.60021982  0.13939578  0.06919811    -0.73100
O147        O  0.70950035  0.14811779  0.19649795    -0.73800
O148        O  0.66072208  0.11711423  0.06784082    -0.73400
O149        O  0.60420666  0.21437478  0.12802867    -0.74000
O150        O  0.54277181  0.09877691  0.18210596    -0.73400
O151        O  0.63476964  0.15601978  0.24175317    -0.74100
O152        O  0.53956457  0.14699951  0.13979795    -0.73500
O153        O  0.61850594  0.09363876  0.24156665    -0.74000
O154        O  0.60920571  0.03392775  0.15924477    -0.73900
O155        O  0.65704711  0.04591591  0.11836417    -0.73700
C156        C  0.73192349  0.12480057  0.17954984     0.78100
C157        C  0.62693829  0.23346163  0.14967853     0.78600
C158        C  0.62918986  0.12620254  0.05098650     0.77600
C159        C  0.52344495  0.12325853  0.16257420     0.78000
C160        C  0.62788606  0.12475503  0.25933163     0.79100
C161        C  0.63237940  0.02312246  0.13259864     0.78100
Zn162      Zn  0.65515386  0.16087148  0.43991384     1.49700
Zn163      Zn  0.59557695  0.15629756  0.37382892     1.49400
Zn164      Zn  0.66895957  0.10142855  0.37399975     1.49100
Zn165      Zn  0.60138775  0.08748975  0.43442121     1.49500
O166        O  0.62974031  0.12593454  0.40519627    -1.83100
O167        O  0.65103618  0.21571927  0.42384201    -0.73800
O168        O  0.60113860  0.13849618  0.31945947    -0.73600
O169        O  0.72228015  0.10623577  0.40083694    -0.73100
O170        O  0.60716180  0.21384388  0.37717722    -0.73800
O171        O  0.71004804  0.14725391  0.44849946    -0.73400
O172        O  0.66210809  0.11752848  0.31802028    -0.74000
O173        O  0.60933672  0.03379560  0.40851984    -0.73400
O174        O  0.54082518  0.14793030  0.39007895    -0.74100
O175        O  0.65772919  0.04553988  0.36817225    -0.73500
O176        O  0.54360301  0.09910111  0.43170658    -0.74000
O177        O  0.61866726  0.09332951  0.49140615    -0.73900
O178        O  0.63331116  0.15609066  0.49154139    -0.73700
C179        C  0.62999123  0.23249628  0.39909554     0.78100
C180        C  0.63035130  0.12599256  0.30118062     0.78600
C181        C  0.73280921  0.12451758  0.43122113     0.77600
C182        C  0.63258237  0.02292310  0.38194213     0.78000
C183        C  0.52450853  0.12406738  0.41259994     0.79100
C184        C  0.62691851  0.12476634  0.00917031     0.78100
Zn185      Zn  0.16826512  0.89987058  0.49801009     1.49700
Zn186      Zn  0.15833384  0.83827344  0.06176470     1.49400
Zn187      Zn  0.09902603  0.91072900  0.05783259     1.49100
Zn188      Zn  0.09555053  0.84181544  0.49762628     1.49500
O189        O  0.12950361  0.87325357  0.02888352    -1.83100
O190        O  0.22239719  0.89716410  0.02349935    -0.73800
O191        O  0.14262887  0.84386832  0.11523813    -0.73600
O192        O  0.10752054  0.96595157  0.03379447    -0.73100
O193        O  0.21316851  0.85169002  0.06737118    -0.73800
O194        O  0.15548055  0.95517372  0.99276658    -0.73400
O195        O  0.11414585  0.90182432  0.11516173    -0.74000
O196        O  0.03952535  0.85182821  0.00997523    -0.73400
O197        O  0.15332316  0.78315600  0.04663500    -0.74100
O198        O  0.04082512  0.89959962  0.05262618    -0.73500
O199        O  0.10594697  0.78444067  0.00350227    -0.74000
O200        O  0.10426012  0.85655927  0.44312742    -0.73900
O201        O  0.16212347  0.88508830  0.44210151    -0.73700
C202        C  0.23444857  0.87686800  0.05188115     0.78100
C203        C  0.12913386  0.87281489  0.13283278     0.78600
C204        C  0.13044314  0.97746505  0.00711083     0.77600
C205        C  0.02210865  0.87554536  0.03194172     0.78000
C206        C  0.13026795  0.76607625  0.02393410     0.79100
C207        C  0.13195259  0.87245588  0.42510420     0.78100
Zn208      Zn  0.09383047  0.89979480  0.24469650     1.49700
Zn209      Zn  0.15333300  0.91421497  0.31049063     1.49400
Zn210      Zn  0.09772235  0.84053406  0.31078574     1.49100
Zn211      Zn  0.16758009  0.84507407  0.25088183     1.49500
O212        O  0.12888406  0.87425096  0.27933626    -1.83100
O213        O  0.10571475  0.95445094  0.23853301    -0.73800
O214        O  0.14034055  0.90635926  0.36658460    -0.73600
O215        O  0.04015239  0.85000989  0.30552589    -0.73100
O216        O  0.14507085  0.96817032  0.28711009    -0.73800
O217        O  0.03893379  0.89403572  0.25920044    -0.73400
O218        O  0.11276030  0.84815122  0.36536744    -0.74000
O219        O  0.15728956  0.78697724  0.25594340    -0.73400
O220        O  0.20962148  0.90576985  0.31421378    -0.74100
O221        O  0.10838108  0.78564863  0.29738411    -0.73500
O222        O  0.22173633  0.85554045  0.27622066    -0.74000
O223        O  0.15983635  0.85928004  0.19303552    -0.73900
O224        O  0.09987525  0.88285639  0.19201359    -0.73700
C225        C  0.12648375  0.97801132  0.25684480     0.78100
C226        C  0.12843355  0.87589650  0.38348434     0.78600
C227        C  0.02168716  0.87257531  0.28325460     0.77600
C228        C  0.13262630  0.76839494  0.27595318     0.78000
C229        C  0.23255670  0.88045496  0.30139301     0.79100
C230        C  0.12996782  0.87171051  0.17484594     0.78100
Zn231      Zn  0.33797996  0.85162442  0.12091336     1.49700
Zn232      Zn  0.40644719  0.84543772  0.06016647     1.49400
Zn233      Zn  0.35128129  0.91894927  0.05935647     1.49100
Zn234      Zn  0.40874958  0.90362614  0.12700372     1.49500
O235        O  0.37541919  0.87938312  0.09082203    -1.83100
O236        O  0.34991008  0.79384495  0.11877989    -0.73800
O237        O  0.38881872  0.84999110  0.00559046    -0.73600
O238        O  0.29490967  0.90836125  0.05407037    -0.73100
O239        O  0.39857205  0.79071879  0.07693994    -0.73800
O240        O  0.28558051  0.85921541  0.09427336    -0.73400
O241        O  0.36539226  0.90999813  0.00300704    -0.74000
O242        O  0.39200430  0.95686852  0.13784904    -0.73400
O243        O  0.46348280  0.85865484  0.06413438    -0.74100
O244        O  0.35968989  0.97301531  0.08478956    -0.73500
O245        O  0.46341127  0.90352705  0.10995896    -0.74000
O246        O  0.40613894  0.87870873  0.17749982    -0.73900
O247        O  0.34257376  0.87018533  0.17758459    -0.73700
C248        C  0.37474757  0.77457919  0.09965961     0.78100
C249        C  0.37469018  0.87813698  0.48680821     0.78600
C250        C  0.27362495  0.88189993  0.06768082     0.77600
C251        C  0.37420328  0.98156337  0.11779358     0.78000
C252        C  0.48107180  0.88276004  0.08558698     0.79100
C253        C  0.37449359  0.87579313  0.19538693     0.78100
Zn254      Zn  0.33632800  0.85063193  0.36991606     1.49700
Zn255      Zn  0.40643420  0.84491457  0.31039811     1.49400
Zn256      Zn  0.35109708  0.91850527  0.30991425     1.49100
Zn257      Zn  0.40836571  0.90216033  0.37739686     1.49500
O258        O  0.37480501  0.87856627  0.34084164    -1.83100
O259        O  0.34883691  0.79320557  0.36804119    -0.73800
O260        O  0.38969986  0.85014702  0.25570726    -0.73600
O261        O  0.29440612  0.90825847  0.30447253    -0.73100
O262        O  0.39832665  0.79025539  0.32710761    -0.73800
O263        O  0.28358337  0.85736773  0.34201970    -0.73400
O264        O  0.36621876  0.91021252  0.25381614    -0.74000
O265        O  0.39267665  0.95573599  0.38860974    -0.73400
O266        O  0.46358994  0.85772470  0.31463951    -0.74100
O267        O  0.36030965  0.97234553  0.33573184    -0.73500
O268        O  0.46342430  0.90155556  0.36132680    -0.74000
O269        O  0.40472870  0.87650812  0.42723145    -0.73900
O270        O  0.34093874  0.86935973  0.42699922    -0.73700
C271        C  0.37418581  0.77409356  0.34948717     0.78100
C272        C  0.37601263  0.87871312  0.23723254     0.78600
C273        C  0.27242139  0.88147216  0.31634077     0.77600
C274        C  0.37522607  0.98073539  0.36860281     0.78000
C275        C  0.48119556  0.88123916  0.33666926     0.79100
C276        C  0.37292806  0.87452581  0.44496229     0.78100
Zn277      Zn  0.40543295  0.15780002  0.19011003     1.49700
Zn278      Zn  0.35089650  0.08335888  0.19119516     1.49400
Zn279      Zn  0.33524839  0.15012105  0.13039777     1.49100
Zn280      Zn  0.40848993  0.09954781  0.12411105     1.49500
O281        O  0.37426943  0.12334814  0.16003447    -1.83100
O282        O  0.38997575  0.15165267  0.24504147    -0.73800
O283        O  0.29432330  0.09289001  0.19671625    -0.73600
O284        O  0.34572179  0.20793868  0.13280201    -0.73100
O285        O  0.36598122  0.09179294  0.24719593    -0.73800
O286        O  0.39437712  0.21210189  0.17467110    -0.73400
O287        O  0.28207917  0.14197028  0.15733583    -0.74000
O288        O  0.40540326  0.12495899  0.07405324    -0.73400
O289        O  0.35949006  0.02969336  0.16528323    -0.74100
O290        O  0.34153832  0.13169996  0.07334012    -0.73500
O291        O  0.39220681  0.04612749  0.11259667    -0.74000
O292        O  0.46374531  0.10045396  0.14067345    -0.73900
O293        O  0.46315626  0.14748023  0.18415804    -0.73700
C294        C  0.37612495  0.12326242  0.26364114     0.78100
C295        C  0.27152302  0.11839695  0.18374358     0.78600
C296        C  0.36990254  0.22766892  0.15227109     0.77600
C297        C  0.37384114  0.12683704  0.05585808     0.78000
C298        C  0.37417561  0.02132284  0.13234460     0.79100
C299        C  0.48127463  0.12303233  0.16356095     0.78100
Zn300      Zn  0.40621929  0.15814482  0.44039520     1.49700
Zn301      Zn  0.33753232  0.15046298  0.37992773     1.49400
Zn302      Zn  0.40992976  0.09915567  0.37389011     1.49100
Zn303      Zn  0.35279357  0.08299995  0.44133259     1.49500
O304        O  0.37598065  0.12331337  0.40981370    -1.83100
O305        O  0.39453646  0.21271022  0.42533793    -0.73800
O306        O  0.34277318  0.13210647  0.32323080    -0.73600
O307        O  0.46502803  0.10131248  0.39041325    -0.73100
O308        O  0.34681852  0.20912976  0.38258597    -0.73800
O309        O  0.46409307  0.14804240  0.43435804    -0.73400
O310        O  0.40638699  0.12352649  0.32324784    -0.74000
O311        O  0.36109001  0.02915923  0.41594725    -0.73400
O312        O  0.28541791  0.14053219  0.40627566    -0.74100
O313        O  0.39400267  0.04522092  0.36330492    -0.73500
O314        O  0.29649014  0.09207544  0.44684519    -0.74000
O315        O  0.36676834  0.09169046  0.49760840    -0.73900
O316        O  0.39009118  0.15175449  0.49537907    -0.73700
C317        C  0.37039396  0.22887818  0.40288502     0.78100
C318        C  0.37466896  0.12636908  0.30544075     0.78600
C319        C  0.48235034  0.12387482  0.41347516     0.77600
C320        C  0.37579027  0.02055693  0.38310246     0.78000
C321        C  0.27428737  0.11752647  0.43294467     0.79100
C322        C  0.37609260  0.12342791  0.01400373     0.78100
Zn323      Zn  0.09245740  0.09575858  0.25490493     1.49700
Zn324      Zn  0.09656864  0.15413213  0.18803190     1.49400
Zn325      Zn  0.16545692  0.15167937  0.24858989     1.49100
Zn326      Zn  0.15362125  0.08169200  0.19016092     1.49500
O327        O  0.12765624  0.12130261  0.22043868    -1.83100
O328        O  0.03742863  0.10253405  0.24023985    -0.73800
O329        O  0.10408130  0.20934968  0.20189966    -0.73600
O330        O  0.15920656  0.13646927  0.30620237    -0.73100
O331        O  0.03943586  0.14366913  0.19135342    -0.73800
O332        O  0.09964317  0.11184211  0.30789970    -0.73400
O333        O  0.15244260  0.20919354  0.24409440    -0.74000
O334        O  0.20972489  0.09161790  0.18659789    -0.73400
O335        O  0.11338098  0.14656413  0.13418392    -0.74100
O336        O  0.21973778  0.14355116  0.22284293    -0.73500
O337        O  0.14092287  0.08831204  0.13387488    -0.74000
O338        O  0.14626274  0.02798922  0.21416796    -0.73900
O339        O  0.10402388  0.04084917  0.26051851    -0.73700
C340        C  0.02060036  0.12265792  0.21468932     0.78100
C341        C  0.12715155  0.22699501  0.22417826     0.78600
C342        C  0.12995319  0.12314782  0.32469843     0.77600
C343        C  0.23158100  0.11834652  0.19847031     0.78000
C344        C  0.12928724  0.11864213  0.11657876     0.79100
C345        C  0.12633815  0.01776804  0.24341175     0.78100
Zn346      Zn  0.16950754  0.09525764  0.00206543     1.49700
Zn347      Zn  0.15796220  0.15687689  0.43782200     1.49400
Zn348      Zn  0.10103277  0.08423938  0.44170879     1.49100
Zn349      Zn  0.09692560  0.15214115  0.00287211     1.49500
O350        O  0.13082924  0.12154645  0.47110080    -1.83100
O351        O  0.22338417  0.09971680  0.47641639    -0.73800
O352        O  0.14268007  0.15081715  0.38432545    -0.73600
O353        O  0.10799009  0.02950201  0.46673483    -0.73100
O354        O  0.21308726  0.14572407  0.43317842    -0.73800
O355        O  0.15654843  0.03970151  0.50729763    -0.73400
O356        O  0.11612992  0.09206807  0.38439174    -0.74000
O357        O  0.04175920  0.14326476  0.48923122    -0.73400
O358        O  0.15034674  0.21127851  0.45228239    -0.74100
O359        O  0.04366357  0.09657213  0.44531824    -0.73500
O360        O  0.10620471  0.20917549  0.49850612    -0.74000
O361        O  0.10482720  0.13671877  0.05692502    -0.73900
O362        O  0.16351260  0.11006890  0.05810564    -0.73700
C363        C  0.23495909  0.12096500  0.44849653     0.78100
C364        C  0.12994474  0.12158356  0.36668357     0.78600
C365        C  0.13082333  0.01780089  0.49339169     0.77600
C366        C  0.02499761  0.12058152  0.46590258     0.78000
C367        C  0.12831783  0.22797300  0.47620433     0.79100
C368        C  0.13292166  0.12173438  0.07501031     0.78100
Zn369      Zn  0.83960107  0.33890929  0.18553503     1.49700
Zn370      Zn  0.90209326  0.34413904  0.24962582     1.49400
Zn371      Zn  0.89725902  0.41163459  0.18854211     1.49100
Zn372      Zn  0.82934420  0.40094224  0.24982010     1.49500
O373        O  0.86762369  0.37442171  0.21830320    -1.83100
O374        O  0.84478411  0.28411902  0.20224376    -0.73800
O375        O  0.95742122  0.35417423  0.23586647    -0.73600
O376        O  0.88279948  0.40262160  0.13159058    -0.73100
O377        O  0.89185714  0.28692330  0.24566459    -0.73800
O378        O  0.85584778  0.34396582  0.13170210    -0.73400
O379        O  0.95545881  0.40170991  0.19305070    -0.74000
O380        O  0.84250978  0.45633767  0.25543576    -0.73400
O381        O  0.89473527  0.35970207  0.30387192    -0.74100
O382        O  0.88869526  0.46624239  0.21219271    -0.73500
O383        O  0.83592915  0.38601109  0.30581440    -0.74000
O384        O  0.77538196  0.39754465  0.22447331    -0.73900
O385        O  0.78482029  0.35231987  0.18019125    -0.73700
C386        C  0.86769445  0.26787621  0.22571582     0.78100
C387        C  0.97444679  0.37788035  0.21362030     0.78600
C388        C  0.86903561  0.37304888  0.11398459     0.77600
C389        C  0.86734219  0.47815282  0.23995180     0.78000
C390        C  0.86685381  0.37461034  0.32233717     0.79100
C391        C  0.76345141  0.37724614  0.19600630     0.78100
Zn392      Zn  0.90379391  0.34282796  0.43586210     1.49700
Zn393      Zn  0.83411168  0.34548080  0.49530904     1.49400
Zn394      Zn  0.90680822  0.40136667  0.00313751     1.49100
Zn395      Zn  0.84739617  0.41600999  0.43728387     1.49500
O396        O  0.87242339  0.37588404  0.46778365    -1.83100
O397        O  0.89552604  0.28706886  0.44975536    -0.73800
O398        O  0.83995027  0.35958059  0.05309916    -0.73600
O399        O  0.96224362  0.39735574  0.98789017    -0.73100
O400        O  0.84617174  0.28789194  0.49064661    -0.73800
O401        O  0.96099965  0.35490169  0.43993054    -0.73400
O402        O  0.90006710  0.38281634  0.05554966    -0.74000
O403        O  0.85538621  0.47011451  0.46101136    -0.73400
O404        O  0.78023881  0.35452259  0.46944616    -0.74100
O405        O  0.89343298  0.45579682  0.01043304    -0.73500
O406        O  0.79119200  0.40663858  0.43371466    -0.74000
O407        O  0.85975133  0.40862568  0.38100270    -0.73900
O408        O  0.88709786  0.35027825  0.38167578    -0.73700
C409        C  0.87152324  0.26954008  0.47132420     0.78100
C410        C  0.86944296  0.37173146  0.07199416     0.78600
C411        C  0.97934042  0.37731830  0.46248361     0.77600
C412        C  0.87310279  0.47963078  0.49192340     0.78000
C413        C  0.76892139  0.38010775  0.44525747     0.79100
C414        C  0.87111581  0.37807511  0.36389497     0.78100
Zn415      Zn  0.83439081  0.64802206  0.00154014     1.49700
Zn416      Zn  0.90228299  0.65510755  0.06331866     1.49400
Zn417      Zn  0.84817223  0.58170116  0.06309026     1.49100
Zn418      Zn  0.90697210  0.59771943  0.49621612     1.49500
O419        O  0.87235670  0.62103679  0.03174982    -1.83100
O420        O  0.84610415  0.70577457  0.00352023    -0.73800
O421        O  0.88429858  0.64995136  0.11733660    -0.73600
O422        O  0.79197398  0.59294894  0.06956599    -0.73100
O423        O  0.89327609  0.70897162  0.04711858    -0.73800
O424        O  0.78179545  0.64066724  0.02796539    -0.73400
O425        O  0.86455474  0.58861670  0.11875715    -0.74000
O426        O  0.89318834  0.54339614  0.48735959    -0.73400
O427        O  0.95985231  0.64469491  0.06044652    -0.74100
O428        O  0.85568987  0.52839165  0.03727056    -0.73500
O429        O  0.96150499  0.60197829  0.51281378    -0.74000
O430        O  0.90245033  0.61998106  0.44476544    -0.73900
O431        O  0.83888191  0.62880744  0.44512160    -0.73700
C432        C  0.87014848  0.72496335  0.02372960     0.78100
C433        C  0.87232233  0.62054132  0.13554859     0.78600
C434        C  0.77023762  0.61868127  0.05527970     0.77600
C435        C  0.87303528  0.51933932  0.00592763     0.78000
C436        C  0.97850418  0.62253263  0.03791638     0.79100
C437        C  0.87059383  0.62266042  0.42717814     0.78100
Zn438      Zn  0.90141182  0.65603293  0.31297930     1.49700
Zn439      Zn  0.84706797  0.58187210  0.31223413     1.49400
Zn440      Zn  0.83402444  0.64974530  0.25139203     1.49100
Zn441      Zn  0.90717392  0.59591940  0.24701889     1.49500
O442        O  0.87190092  0.62134533  0.28124229    -1.83100
O443        O  0.88473633  0.64898387  0.36719310    -0.73800
O444        O  0.79132721  0.59397789  0.31865787    -0.73600
O445        O  0.84430253  0.70812680  0.25434036    -0.73100
O446        O  0.86281542  0.58834537  0.36844386    -0.73800
O447        O  0.89061880  0.71058797  0.29857589    -0.73400
O448        O  0.78099678  0.64147934  0.27687149    -0.74000
O449        O  0.90208557  0.61636986  0.19497481    -0.73400
O450        O  0.85226116  0.52851204  0.28509428    -0.74100
O451        O  0.83963625  0.63210607  0.19480419    -0.73500
O452        O  0.89498999  0.54038624  0.23889599    -0.74000
O453        O  0.96153637  0.60247401  0.26324324    -0.73900
O454        O  0.95930945  0.64713342  0.30908175    -0.73700
C455        C  0.87185012  0.61992176  0.38536241     0.78100
C456        C  0.76950915  0.61948089  0.30420639     0.78600
C457        C  0.86754812  0.72729502  0.27550432     0.77600
C458        C  0.87088579  0.62300366  0.17725476     0.78000
C459        C  0.87164103  0.51771252  0.25546750     0.79100
C460        C  0.97826715  0.62448453  0.28727966     0.78100
Zn461      Zn  0.66612304  0.60050442  0.12655606     1.49700
Zn462      Zn  0.59277714  0.65552910  0.12692097     1.49400
Zn463      Zn  0.65375432  0.66086761  0.06141968     1.49100
Zn464      Zn  0.59848143  0.58833115  0.06512924     1.49500
O465        O  0.62724165  0.62589004  0.09513925    -1.83100
O466        O  0.66033107  0.61690754  0.18235555    -0.73800
O467        O  0.60235824  0.71343383  0.12267470    -0.73600
O468        O  0.70908062  0.64794081  0.05511608    -0.73100
O469        O  0.59963192  0.63853918  0.18117743    -0.73800
O470        O  0.71969284  0.60374780  0.10019156    -0.73400
O471        O  0.64710427  0.71553729  0.07689493    -0.74000
O472        O  0.61563057  0.59390210  0.00848460    -0.73400
O473        O  0.53798528  0.64476871  0.11276617    -0.74100
O474        O  0.63543138  0.65521928  0.00851609    -0.73500
O475        O  0.54017446  0.59841200  0.06856819    -0.74000
O476        O  0.60654808  0.53514276  0.08996813    -0.73900
O477        O  0.65288401  0.54526011  0.13310633    -0.73700
C478        C  0.62876337  0.62572320  0.19928406     0.78100
C479        C  0.62501574  0.73234589  0.10077430     0.78600
C480        C  0.73103320  0.62355464  0.07114794     0.77600
C481        C  0.62670595  0.62446532  0.49088500     0.78000
C482        C  0.52111765  0.62153500  0.08991667     0.79100
C483        C  0.62784668  0.52352287  0.11778271     0.78100
Zn484      Zn  0.65267281  0.66012742  0.31120576     1.49700
Zn485      Zn  0.59888086  0.58700651  0.31501026     1.49400
Zn486      Zn  0.66631956  0.60041114  0.37642403     1.49100
Zn487      Zn  0.59243871  0.65435585  0.37686422     1.49500
O488        O  0.62698231  0.62489185  0.34510611    -1.83100
O489        O  0.63299934  0.65533129  0.25885446    -0.73800
O490        O  0.60815340  0.53375323  0.33987189    -0.73600
O491        O  0.71955710  0.60463672  0.34966261    -0.73100
O492        O  0.61675090  0.59301797  0.25845925    -0.73800
O493        O  0.70784229  0.64761448  0.30370300    -0.73400
O494        O  0.65431696  0.54474875  0.38302866    -0.74000
O495        O  0.59907704  0.63716861  0.43108448    -0.73400
O496        O  0.54024615  0.59708037  0.31815722    -0.74100
O497        O  0.66049488  0.61762220  0.43203622    -0.73500
O498        O  0.53793526  0.64379041  0.36203046    -0.74000
O499        O  0.60197877  0.71229391  0.37317476    -0.73900
O500        O  0.64658545  0.71437890  0.32731080    -0.73700
C501        C  0.62627434  0.62420710  0.24102112     0.78100
C502        C  0.62986949  0.52243168  0.36753278     0.78600
C503        C  0.73032027  0.62400205  0.32010302     0.77600
C504        C  0.62877352  0.62560400  0.44910852     0.78000
C505        C  0.52112176  0.62056236  0.33914328     0.79100
C506        C  0.62471611  0.73116714  0.35135066     0.78100
Zn507      Zn  0.59205333  0.34633478  0.18823520     1.49700
Zn508      Zn  0.58714130  0.40665144  0.12212491     1.49400
Zn509      Zn  0.64720172  0.41974659  0.18840002     1.49100
Zn510      Zn  0.65986833  0.35288755  0.12720917     1.49500
O511        O  0.62183435  0.38094263  0.15682325    -1.83100
O512        O  0.53421351  0.35645078  0.18332974    -0.73800
O513        O  0.59993582  0.46186858  0.11595613    -0.73600
O514        O  0.63225486  0.41294707  0.24431644    -0.73100
O515        O  0.53216452  0.40052933  0.13678347    -0.73800
O516        O  0.60990629  0.35250683  0.24273655    -0.73400
O517        O  0.64241726  0.47317151  0.16262780    -0.74000
O518        O  0.71252450  0.36026857  0.15314157    -0.73400
O519        O  0.59363677  0.38746831  0.06954434    -0.74100
O520        O  0.70282912  0.40793990  0.19479745    -0.73500
O521        O  0.65569397  0.37037591  0.07075521    -0.74000
O522        O  0.64912390  0.29505213  0.12951810    -0.73900
O523        O  0.60215306  0.29159749  0.17309879    -0.73700
C524        C  0.51544630  0.37883096  0.16100590     0.78100
C525        C  0.62323830  0.48420318  0.13304060     0.78600
C526        C  0.62377004  0.38115514  0.26097950     0.77600
C527        C  0.72429821  0.38217662  0.18040134     0.78000
C528        C  0.62503417  0.37991364  0.05251160     0.79100
C529        C  0.62559312  0.27558101  0.14995558     0.78100
Zn530      Zn  0.66447967  0.35156109  0.37672344     1.49700
Zn531      Zn  0.59663953  0.34488131  0.43836673     1.49400
Zn532      Zn  0.65096284  0.41851889  0.43812987     1.49100
Zn533      Zn  0.59128628  0.40480554  0.37287470     1.49500
O534        O  0.62646575  0.37935771  0.40688520    -1.83100
O535        O  0.65274886  0.29379004  0.37856597    -0.73800
O536        O  0.61271275  0.35185836  0.49284799    -0.73600
O537        O  0.70667195  0.40630319  0.44459138    -0.73100
O538        O  0.60688962  0.29058514  0.42339427    -0.73800
O539        O  0.71808512  0.35849802  0.40336222    -0.73400
O540        O  0.63371038  0.41283258  0.49355837    -0.74000
O541        O  0.60347546  0.46003886  0.36544720    -0.73400
O542        O  0.53902095  0.35386516  0.43382377    -0.74100
O543        O  0.64576432  0.47199430  0.41203807    -0.73500
O544        O  0.53716016  0.39898335  0.38851649    -0.74000
O545        O  0.59535533  0.38414715  0.32102361    -0.73900
O546        O  0.65811774  0.36994125  0.31984028    -0.73700
C547        C  0.62945455  0.27452376  0.39949059     0.78100
C548        C  0.62461179  0.38150885  0.01076980     0.78600
C549        C  0.72900779  0.38094733  0.43063692     0.77600
C550        C  0.62633498  0.48281571  0.38252759     0.78000
C551        C  0.52029921  0.37668414  0.41203668     0.79100
C552        C  0.62631990  0.37828383  0.30273430     0.78100
Zn553      Zn  0.16487646  0.64716471  0.00179179     1.49700
Zn554      Zn  0.09748244  0.65379985  0.06391500     1.49400
Zn555      Zn  0.09180697  0.59429420  0.49807480     1.49100
Zn556      Zn  0.15269682  0.58070459  0.06337724     1.49500
O557        O  0.12720730  0.61941255  0.03219078    -1.83100
O558        O  0.15334961  0.70480690  0.00416497    -0.73800
O559        O  0.03968755  0.64403245  0.06066996    -0.73600
O560        O  0.09699188  0.61369279  0.44557058    -0.73100
O561        O  0.10678441  0.70809591  0.04826539    -0.73800
O562        O  0.15942808  0.62926934  0.44533190    -0.73400
O563        O  0.03743365  0.60061382  0.51371970    -0.74000
O564        O  0.14735901  0.52728162  0.03687934    -0.73400
O565        O  0.11532151  0.64795889  0.11798395    -0.74100
O566        O  0.10380404  0.53918076  0.49135747    -0.73500
O567        O  0.13657490  0.58709977  0.11927584    -0.74000
O568        O  0.20844557  0.59356873  0.06966549    -0.73900
O569        O  0.21831861  0.64028960  0.02695704    -0.73700
C570        C  0.12971244  0.72409012  0.02467061     0.78100
C571        C  0.02071110  0.62198669  0.03824234     0.85000
C572        C  0.12815588  0.62030017  0.42779130     0.77600
C573        C  0.12726086  0.51653455  0.00773184     0.78000
C574        C  0.12801673  0.61879787  0.13614747     0.79100
C575        C  0.23009151  0.61894533  0.05467714     0.78100
Zn576      Zn  0.09762667  0.65516515  0.31397750     1.49700
Zn577      Zn  0.16532111  0.64824306  0.25237039     1.49400
Zn578      Zn  0.15164447  0.58091600  0.31319151     1.49100
Zn579      Zn  0.09155356  0.59587753  0.24772550     1.49500
O580        O  0.12702553  0.62049726  0.28219061    -1.83100
O581        O  0.10898582  0.70953824  0.29941280    -0.73800
O582        O  0.21809253  0.64001849  0.27819263    -0.73600
O583        O  0.13483148  0.58672813  0.36882166    -0.73100
O584        O  0.15532873  0.70654693  0.25519448    -0.73800
O585        O  0.11458700  0.64794587  0.36820227    -0.73400
O586        O  0.20762456  0.59293444  0.32039365    -0.74000
O587        O  0.10207763  0.54032003  0.24105955    -0.73400
O588        O  0.16030735  0.63027542  0.19574594    -0.74100
O589        O  0.14545205  0.52763004  0.28648175    -0.73500
O590        O  0.09774365  0.61513650  0.19534351    -0.74000
O591        O  0.03728123  0.60306623  0.26301734    -0.73900
O592        O  0.03947958  0.64652521  0.30992894    -0.73700
C593        C  0.13226828  0.72594647  0.27632283     0.78100
C594        C  0.22951963  0.61833074  0.30578303     0.78600
C595        C  0.12664745  0.61831588  0.38603919     0.77600
C596        C  0.12502103  0.51718007  0.25745654     0.78000
C597        C  0.12918135  0.62129416  0.17790064     0.79100
C598        C  0.02051393  0.62450247  0.28744120     0.78100
Zn599      Zn  0.16251948  0.39907005  0.25008207     1.49700
Zn600      Zn  0.09448927  0.41357946  0.18968317     1.49400
Zn601      Zn  0.14670272  0.34172406  0.18312759     1.49100
Zn602      Zn  0.08897104  0.34434813  0.25034449     1.49500
O603        O  0.12238006  0.37543712  0.21917255    -1.83100
O604        O  0.15263574  0.45512809  0.25619590    -0.73800
O605        O  0.11332547  0.40840023  0.13291099    -0.73600
O606        O  0.19987953  0.35827712  0.17179345    -0.73100
O607        O  0.10434307  0.46645833  0.21552166    -0.73800
O608        O  0.21565657  0.39199548  0.22399660    -0.73400
O609        O  0.12229149  0.34483224  0.13272311    -0.74000
O610        O  0.10127989  0.28682823  0.24523991    -0.73400
O611        O  0.03597842  0.40245019  0.19340051    -0.74100
O612        O  0.14665587  0.28679898  0.19999098    -0.73500
O613        O  0.03401416  0.35415564  0.23572498    -0.74000
O614        O  0.09554805  0.36091220  0.30504045    -0.73900
O615        O  0.15596359  0.38336623  0.30586142    -0.73700
C616        C  0.12752100  0.47758768  0.24210482     0.78100
C617        C  0.12008470  0.37669157  0.11507430     0.78600
C618        C  0.22423998  0.37709109  0.19131298     0.77600
C619        C  0.12560368  0.26910337  0.22410266     0.78000
C620        C  0.01704541  0.37808802  0.21364647     0.79100
C621        C  0.12466438  0.37414157  0.32299754     0.78100
Zn622      Zn  0.09213992  0.34509883  0.00009882     1.49700
Zn623      Zn  0.16582413  0.39879495  0.00126042     1.49400
Zn624      Zn  0.15145250  0.34090716  0.43406480     1.49100
Zn625      Zn  0.09844732  0.41317200  0.43956926     1.49500
O626        O  0.12656307  0.37533672  0.46913356    -1.83100
O627        O  0.09599078  0.36276509  0.05413461    -0.73800
O628        O  0.21948978  0.39280565  0.47478957    -0.73600
O629        O  0.14778582  0.28697724  0.45077538    -0.73100
O630        O  0.15685532  0.38358876  0.05759125    -0.73800
O631        O  0.10390224  0.28818553  0.49735384    -0.73400
O632        O  0.20617633  0.35411964  0.42543264    -0.74000
O633        O  0.11491284  0.40728770  0.38247709    -0.73400
O634        O  0.15538513  0.45474817  0.50697614    -0.74100
O635        O  0.12916420  0.34456550  0.38259901    -0.73500
O636        O  0.10811230  0.46601132  0.46505914    -0.74000
O637        O  0.04032731  0.40248270  0.44346743    -0.73900
O638        O  0.03789280  0.35292074  0.48418506    -0.73700
C639        C  0.12444088  0.37537227  0.07336452     0.78100
C640        C  0.22954513  0.37539119  0.44368384     0.78600
C641        C  0.12698324  0.26991645  0.47549237     0.77600
C642        C  0.12276863  0.37575570  0.36479799     0.78000
C643        C  0.13054673  0.47711720  0.49225674     0.79100
C644        C  0.02140733  0.37731247  0.46251852     0.78100
Zn645      Zn  0.32892160  0.40353674  0.12410565     1.49700
Zn646      Zn  0.39758012  0.41500598  0.18403154     1.49400
Zn647      Zn  0.34154164  0.34228383  0.18952146     1.49100
Zn648      Zn  0.40150349  0.34547199  0.12418816     1.49500
O649        O  0.36780770  0.37715168  0.15519838    -1.83100
O650        O  0.34038227  0.45983485  0.12024540    -0.73800
O651        O  0.38326152  0.40814994  0.24141837    -0.73600
O652        O  0.28719390  0.35555553  0.19519470    -0.73100
O653        O  0.39053952  0.46938058  0.15898740    -0.73800
O654        O  0.27419926  0.39629368  0.14750491    -0.73400
O655        O  0.35851609  0.34862676  0.24237430    -0.74000
O656        O  0.39123800  0.28819919  0.12933928    -0.73400
O657        O  0.45470793  0.40312763  0.18013096    -0.74100
O658        O  0.34676716  0.28670523  0.17530490    -0.73500
O659        O  0.45673275  0.35439873  0.13843736    -0.74000
O660        O  0.39437497  0.36093638  0.06968803    -0.73900
O661        O  0.33692840  0.39017065  0.06800944    -0.73700
C662        C  0.36680927  0.48144807  0.13336458     0.78100
C663        C  0.37054802  0.37844290  0.25954609     0.78600
C664        C  0.26398556  0.37717652  0.17740372     0.77600
C665        C  0.36857257  0.26967481  0.15138793     0.78000
C666        C  0.47341043  0.37827899  0.16067659     0.79100
C667        C  0.36722393  0.37742727  0.05138446     0.78100
Zn668      Zn  0.34611014  0.41766653  0.43662524     1.49700
Zn669      Zn  0.33470866  0.34811618  0.37673205     1.49400
Zn670      Zn  0.40708653  0.40540962  0.37205618     1.49100
Zn671      Zn  0.40216700  0.34449808  0.43790240     1.49500
O672        O  0.37196672  0.37841508  0.40572541    -1.83100
O673        O  0.29055955  0.40522792  0.44245288    -0.73800
O674        O  0.34154476  0.36309030  0.31964297    -0.73600
O675        O  0.39664205  0.46097331  0.36746566    -0.73100
O676        O  0.28088766  0.35701655  0.40127829    -0.73800
O677        O  0.35129545  0.47156297  0.41127631    -0.73400
O678        O  0.39999008  0.39028174  0.31852159    -0.74000
O679        O  0.45947186  0.35424538  0.43397548    -0.73400
O680        O  0.34555472  0.28983921  0.38139517    -0.74100
O681        O  0.46145645  0.39765792  0.38698007    -0.73500
O682        O  0.39262472  0.28913314  0.42477949    -0.74000
O683        O  0.38603542  0.35251091  0.49194774    -0.73900
O684        O  0.36058807  0.41170400  0.49269471    -0.73700
C685        C  0.26897210  0.37948019  0.42813155     0.78100
C686        C  0.37040105  0.37749650  0.30146341     0.78600
C687        C  0.37245427  0.48313191  0.38329151     0.77600
C688        C  0.47822680  0.37641184  0.41160486     0.78000
C689        C  0.36952278  0.27147598  0.40242866     0.79100
C690        C  0.37126704  0.38087712  0.00981491     0.78100
Zn691      Zn  0.34716785  0.66025762  0.06140114     1.49700
Zn692      Zn  0.40114545  0.58608823  0.06690694     1.49400
Zn693      Zn  0.40714457  0.65573182  0.12705314     1.49100
Zn694      Zn  0.33326432  0.60086721  0.12715897     1.49500
O695        O  0.37284493  0.62509755  0.09591661    -1.83100
O696        O  0.36850057  0.65522636  0.00963115    -0.73800
O697        O  0.45955811  0.59677811  0.07021731    -0.73600
O698        O  0.39750308  0.71375295  0.12177302    -0.73100
O699        O  0.38404459  0.59264646  0.00965639    -0.73800
O700        O  0.35171354  0.71542226  0.07701567    -0.73400
O701        O  0.46176687  0.64503260  0.11245745    -0.74000
O702        O  0.33997820  0.61689554  0.18293275    -0.73400
O703        O  0.39156952  0.53212698  0.09271449    -0.74100
O704        O  0.40037680  0.63950025  0.18171732    -0.73500
O705        O  0.34348287  0.54482776  0.13310391    -0.74000
O706        O  0.27992386  0.60582827  0.10076319    -0.73900
O707        O  0.29212298  0.64665628  0.05299784    -0.73700
C708        C  0.37520146  0.62399653  0.49195988     0.78100
C709        C  0.47859503  0.62115669  0.09025900     0.78600
C710        C  0.37409795  0.73241198  0.10044680     0.77600
C711        C  0.37138003  0.62631725  0.19985689     0.78000
C712        C  0.36800515  0.52161371  0.11922305     0.79100
C713        C  0.26936658  0.62397017  0.07036205     0.78100
Zn714      Zn  0.40739963  0.65551401  0.37670848     1.49700
Zn715      Zn  0.34614213  0.66021601  0.31181602     1.49400
Zn716      Zn  0.40063489  0.58733489  0.31575546     1.49100
Zn717      Zn  0.33340379  0.60064897  0.37756096     1.49500
O718        O  0.37254550  0.62537364  0.34582214    -1.83100
O719        O  0.39783582  0.71346335  0.37096463    -0.73800
O720        O  0.36646679  0.65578163  0.25951956    -0.73600
O721        O  0.45925342  0.59704609  0.31862359    -0.73100
O722        O  0.35043854  0.71504849  0.32780752    -0.73800
O723        O  0.46192156  0.64438078  0.36177608    -0.73400
O724        O  0.38313400  0.59355542  0.25907570    -0.74000
O725        O  0.34461678  0.54500286  0.38348301    -0.73400
O726        O  0.29132548  0.64610882  0.30427457    -0.74100
O727        O  0.39130584  0.53413917  0.34094645    -0.73500
O728        O  0.27954435  0.60490221  0.35180896    -0.74000
O729        O  0.34091866  0.61602165  0.43349059    -0.73900
O730        O  0.40107413  0.63917575  0.43163822    -0.73700
C731        C  0.37365468  0.73202552  0.35041367     0.78100
C732        C  0.37370556  0.62479153  0.24163195     0.78600
C733        C  0.47855821  0.62072284  0.33919609     0.77600
C734        C  0.36925136  0.52276506  0.36833811     0.78000
C735        C  0.26877324  0.62319009  0.32156172     0.79100
C736        C  0.37248788  0.62549334  0.45009640     0.78100
Zn737      Zn  0.59282616  0.85109767  0.62671795     1.49700
Zn738      Zn  0.64854917  0.84643279  0.55875396     1.49400
Zn739      Zn  0.59986681  0.91980193  0.56558939     1.49100
Zn740      Zn  0.66735370  0.90410065  0.62564505     1.49500
O741        O  0.62679739  0.88108247  0.59521950    -1.83100
O742        O  0.60281158  0.79334912  0.62342792    -0.73800
O743        O  0.62385653  0.85154276  0.50859346    -0.73600
O744        O  0.54208398  0.90772336  0.56665526    -0.73100
O745        O  0.64459132  0.79167722  0.57505533    -0.73800
O746        O  0.53906926  0.86044496  0.61016368    -0.73400
O747        O  0.61992571  0.91553939  0.50914497    -0.74000
O748        O  0.65853408  0.96080976  0.63022107    -0.73400
O749        O  0.70278799  0.85960309  0.54776743    -0.74100
O750        O  0.60766008  0.97242253  0.59284127    -0.73500
O751        O  0.72026566  0.89412545  0.59902181    -0.74000
O752        O  0.65949190  0.88962508  0.68212583    -0.73900
O753        O  0.59850998  0.86871281  0.68090380    -0.73700
C754        C  0.62445100  0.77464159  0.60044581     0.78100
C755        C  0.62405012  0.88353455  0.99106003     0.78600
C756        C  0.52300470  0.88336953  0.58658712     0.77600
C757        C  0.63232191  0.98327311  0.61807784     0.78000
C758        C  0.72806686  0.87784003  0.56671792     0.79100
C759        C  0.62774872  0.88128568  0.69906286     0.78100
Zn760      Zn  0.65120588  0.84454099  0.80978657     1.49700
Zn761      Zn  0.66782669  0.90411736  0.87577397     1.49400
Zn762      Zn  0.59989519  0.91858548  0.81582269     1.49100
Zn763      Zn  0.59366102  0.85011875  0.87691584     1.49500
O764        O  0.62786018  0.88000226  0.84514289    -1.83100
O765        O  0.70648946  0.85558227  0.80097406    -0.73800
O766        O  0.65846148  0.96059518  0.87984922    -0.73600
O767        O  0.61828427  0.91388042  0.75905676    -0.73100
O768        O  0.72089076  0.89605434  0.84860138    -0.73800
O769        O  0.62949969  0.85052801  0.75822253    -0.73400
O770        O  0.60771423  0.97189213  0.84230985    -0.74000
O771        O  0.53956278  0.85902026  0.86087743    -0.73400
O772        O  0.65949088  0.89084302  0.93272773    -0.74100
O773        O  0.54210484  0.90645953  0.81763692    -0.73500
O774        O  0.59917981  0.86813062  0.93080125    -0.74000
O775        O  0.60335859  0.79235786  0.87426928    -0.73900
O776        O  0.64494865  0.79013922  0.82576619    -0.73700
C777        C  0.73037658  0.87719069  0.81815117     0.78100
C778        C  0.63237001  0.98299875  0.86745989     0.78600
C779        C  0.62530220  0.88239495  0.74091604     0.77600
C780        C  0.52320623  0.88199180  0.83756469     0.78000
C781        C  0.62765967  0.88189867  0.94926034     0.79100
C782        C  0.62463630  0.77339547  0.85118251     0.78100
Zn783      Zn  0.83270450  0.89928485  0.99759399     1.49700
Zn784      Zn  0.90594658  0.84204102  0.99727581     1.49400
Zn785      Zn  0.90234123  0.91017372  0.55768334     1.49100
Zn786      Zn  0.84455839  0.83906393  0.56268408     1.49500
O787        O  0.87204754  0.87323419  0.52862443    -1.83100
O788        O  0.83961985  0.88499856  0.94173311    -0.73800
O789        O  0.96201168  0.85160218  0.51000715    -0.73600
O790        O  0.89322910  0.96409596  0.53360328    -0.73100
O791        O  0.89786500  0.85735238  0.94288652    -0.73800
O792        O  0.84488760  0.95496961  0.49245614    -0.73400
O793        O  0.96056531  0.89948298  0.55252041    -0.74000
O794        O  0.86200118  0.84371829  0.61567451    -0.73400
O795        O  0.89448668  0.78494752  0.50254347    -0.74100
O796        O  0.88730728  0.90300458  0.61478241    -0.73500
O797        O  0.84776669  0.78412067  0.54645470    -0.74000
O798        O  0.79055227  0.85405727  0.56985910    -0.73900
O799        O  0.77805542  0.89426622  0.52176559    -0.73700
C800        C  0.87009236  0.87305246  0.92485225     0.78100
C801        C  0.97936681  0.87544693  0.53192378     0.78600
C802        C  0.87061789  0.97639076  0.50705199     0.77600
C803        C  0.87376689  0.87365236  0.63287432     0.78000
C804        C  0.87003672  0.76688166  0.52309642     0.79100
C805        C  0.76770105  0.87616102  0.55220529     0.78100
Zn806      Zn  0.90760491  0.90241182  0.74523400     1.49700
Zn807      Zn  0.90322391  0.84151030  0.81031770     1.49400
Zn808      Zn  0.84811577  0.91541760  0.81118410     1.49100
Zn809      Zn  0.83444371  0.84711038  0.75006660     1.49500
O810        O  0.87269230  0.87603353  0.77921646    -1.83100
O811        O  0.96255730  0.89570360  0.76001923    -0.73800
O812        O  0.88847574  0.84892222  0.86489399    -0.73600
O813        O  0.85465078  0.96988631  0.78801465    -0.73100
O814        O  0.96069823  0.85020334  0.80497410    -0.73800
O815        O  0.89484679  0.95727962  0.73982806    -0.73400
O816        O  0.86257878  0.90786518  0.86681786    -0.74000
O817        O  0.78075688  0.85762463  0.77485214    -0.73400
O818        O  0.89198117  0.78672799  0.79688346    -0.74100
O819        O  0.79235951  0.90471484  0.81684170    -0.73500
O820        O  0.84364217  0.78877876  0.75490276    -0.74000
O821        O  0.84247263  0.86084212  0.69259720    -0.73900
O822        O  0.90191150  0.88571270  0.69226220    -0.73700
C823        C  0.97947677  0.87309651  0.78333841     0.78100
C824        C  0.87370318  0.87691250  0.88333391     0.78600
C825        C  0.87336282  0.98035517  0.75802972     0.77600
C826        C  0.76978712  0.88004021  0.80219717     0.78000
C827        C  0.86774798  0.76978993  0.77517731     0.79100
C828        C  0.87237996  0.87351132  0.67476876     0.78100
Zn829      Zn  0.90675840  0.09849673  0.75457088     1.49700
Zn830      Zn  0.84896200  0.08281224  0.68738789     1.49400
Zn831      Zn  0.83469927  0.14874924  0.74955960     1.49100
Zn832      Zn  0.90254487  0.15617586  0.68769211     1.49500
O833        O  0.87256951  0.12210920  0.71896291    -1.83100
O834        O  0.89232139  0.04438504  0.76404226    -0.73800
O835        O  0.79299219  0.09461545  0.68043600    -0.73600
O836        O  0.83995090  0.12944888  0.80604086    -0.73100
O837        O  0.85627418  0.02945949  0.71303010    -0.73800
O838        O  0.90362118  0.12224255  0.80520642    -0.73400
O839        O  0.78219098  0.14094212  0.72350572    -0.74000
O840        O  0.89246795  0.21006698  0.70306022    -0.73400
O841        O  0.86649595  0.08918233  0.63211830    -0.74100
O842        O  0.84538312  0.20665966  0.74672955    -0.73500
O843        O  0.88546173  0.15072561  0.63325788    -0.74000
O844        O  0.96008083  0.14581930  0.69218074    -0.73900
O845        O  0.96117612  0.10166118  0.73850249    -0.73700
C846        C  0.87290990  0.02028740  0.74472037     0.78100
C847        C  0.77100603  0.11972716  0.69544735     0.78600
C848        C  0.87213172  0.12394323  0.82339711     0.77600
C849        C  0.86889757  0.22597863  0.72604956     0.78000
C850        C  0.87420776  0.12098597  0.61512710     0.79100
C851        C  0.97843861  0.12300708  0.71436616     0.78100
Zn852      Zn  0.91040583  0.09367833  0.50349258     1.49700
Zn853      Zn  0.84937711  0.08173481  0.93787335     1.49400
Zn854      Zn  0.83797129  0.15027071  0.99810662     1.49100
Zn855      Zn  0.90691288  0.15439323  0.93782782     1.49500
O856        O  0.87570563  0.12047743  0.96911189    -1.83100
O857        O  0.89802278  0.03833683  0.50916797    -0.73800
O858        O  0.79357706  0.09400442  0.93248267    -0.73600
O859        O  0.84361385  0.13517514  0.55536155    -0.73100
O860        O  0.85465559  0.02763390  0.96325160    -0.73800
O861        O  0.90366257  0.11174043  0.55619500    -0.73400
O862        O  0.78425569  0.14211348  0.97371245    -0.74000
O863        O  0.89695767  0.20989335  0.95081156    -0.73400
O864        O  0.86322697  0.08920864  0.88155698    -0.74100
O865        O  0.84852822  0.20818963  0.99272998    -0.73500
O866        O  0.89030862  0.14768143  0.88345096    -0.74000
O867        O  0.96461789  0.14346660  0.94307251    -0.73900
O868        O  0.96567300  0.09932937  0.48948704    -0.73700
C869        C  0.87451055  0.01612740  0.99227606     0.78100
C870        C  0.77214835  0.11985183  0.94685836     0.78600
C871        C  0.87343974  0.12275742  0.57335884     0.77600
C872        C  0.87256137  0.22701978  0.97219354     0.78000
C873        C  0.87441848  0.12024967  0.86507733     0.79100
C874        C  0.98291790  0.12068297  0.96536120     0.78100
Zn875      Zn  0.66774724  0.10170573  0.62370261     1.49700
Zn876      Zn  0.65449116  0.16173472  0.68929999     1.49400
Zn877      Zn  0.59412457  0.15655425  0.62383854     1.49100
Zn878      Zn  0.60080284  0.08774823  0.68471735     1.49500
O879        O  0.62867826  0.12643530  0.65513978    -1.83100
O880        O  0.72118687  0.10617541  0.64953735    -0.73800
O881        O  0.64899562  0.21696422  0.67378651    -0.73600
O882        O  0.60022023  0.13939529  0.56919745    -0.73100
O883        O  0.70949939  0.14811808  0.69649796    -0.73800
O884        O  0.66072168  0.11711452  0.56784022    -0.73400
O885        O  0.60420664  0.21437367  0.62802868    -0.74000
O886        O  0.54277096  0.09877772  0.68210599    -0.73400
O887        O  0.63476976  0.15602201  0.74175260    -0.74100
O888        O  0.53956409  0.14699931  0.63979822    -0.73500
O889        O  0.61850692  0.09364067  0.74156743    -0.74000
O890        O  0.60920556  0.03392756  0.65924471    -0.73900
O891        O  0.65704723  0.04591665  0.61836362    -0.73700
C892        C  0.73192516  0.12479998  0.67955092     0.78100
C893        C  0.62693748  0.23346535  0.64967719     0.78600
C894        C  0.62918980  0.12620359  0.55098998     0.77600
C895        C  0.52344723  0.12325876  0.66257584     0.78000
C896        C  0.62788534  0.12474977  0.75933134     0.79100
C897        C  0.63237840  0.02312231  0.63259914     0.78100
Zn898      Zn  0.65515397  0.16087134  0.93991398     1.49700
Zn899      Zn  0.59557742  0.15629763  0.87382888     1.49400
Zn900      Zn  0.66895974  0.10142843  0.87399989     1.49100
Zn901      Zn  0.60138777  0.08748998  0.93442111     1.49500
O902        O  0.62974061  0.12593455  0.90519616    -1.83100
O903        O  0.65103683  0.21572001  0.92384203    -0.73800
O904        O  0.60113920  0.13849604  0.81945934    -0.73600
O905        O  0.72228145  0.10623586  0.90083802    -0.73100
O906        O  0.60716392  0.21384565  0.87717804    -0.73800
O907        O  0.71005002  0.14725282  0.94849974    -0.73400
O908        O  0.66210912  0.11752797  0.81802048    -0.74000
O909        O  0.60933831  0.03379464  0.90851715    -0.73400
O910        O  0.54082427  0.14793075  0.89007906    -0.74100
O911        O  0.65773062  0.04554010  0.86817144    -0.73500
O912        O  0.54360159  0.09910166  0.93170601    -0.74000
O913        O  0.61866675  0.09332813  0.99140437    -0.73900
O914        O  0.63331087  0.15608957  0.99154048    -0.73700
C915        C  0.62999093  0.23249210  0.89909304     0.78100
C916        C  0.63035011  0.12599405  0.80118110     0.78600
C917        C  0.73280426  0.12451816  0.93121988     0.77600
C918        C  0.63257831  0.02292505  0.88194681     0.78000
C919        C  0.52451316  0.12406774  0.91259906     0.79100
C920        C  0.62691811  0.12476286  0.50916600     0.78100
Zn921      Zn  0.16826528  0.89987006  0.99801017     1.49700
Zn922      Zn  0.15833410  0.83827401  0.56176470     1.49400
Zn923      Zn  0.09902564  0.91072911  0.55783272     1.49100
Zn924      Zn  0.09555062  0.84181523  0.99762625     1.49500
O925        O  0.12950345  0.87325386  0.52888342    -1.83100
O926        O  0.22239610  0.89716520  0.52349794    -0.73800
O927        O  0.14262878  0.84386956  0.61523738    -0.73600
O928        O  0.10752086  0.96595199  0.53379389    -0.73100
O929        O  0.21316723  0.85169007  0.56737070    -0.73800
O930        O  0.15548048  0.95517347  0.49276618    -0.73400
O931        O  0.11414424  0.90182610  0.61515988    -0.74000
O932        O  0.03952688  0.85182794  0.50997462    -0.73400
O933        O  0.15332120  0.78315552  0.54663283    -0.74100
O934        O  0.04082723  0.89960087  0.55262688    -0.73500
O935        O  0.10594453  0.78444220  0.50350059    -0.74000
O936        O  0.10426021  0.85655952  0.94312765    -0.73900
O937        O  0.16212382  0.88508788  0.94210207    -0.73700
C938        C  0.23445273  0.87686923  0.55188247     0.78100
C939        C  0.12913563  0.87281214  0.63283797     0.78600
C940        C  0.13044092  0.97746606  0.50711226     0.77600
C941        C  0.02210252  0.87554477  0.53194116     0.78000
C942        C  0.13027480  0.76607509  0.52393977     0.79100
C943        C  0.13195251  0.87245598  0.92510338     0.78100
Zn944      Zn  0.09383009  0.89979467  0.74469649     1.49700
Zn945      Zn  0.15333277  0.91421503  0.81049083     1.49400
Zn946      Zn  0.09772196  0.84053437  0.81078584     1.49100
Zn947      Zn  0.16757984  0.84507429  0.75088191     1.49500
O948        O  0.12888371  0.87425110  0.77933629    -1.83100
O949        O  0.10571367  0.95445019  0.73853164    -0.73800
O950        O  0.14034041  0.90635950  0.86658494    -0.73600
O951        O  0.04015231  0.85001042  0.80552630    -0.73100
O952        O  0.14506927  0.96817115  0.78710798    -0.73800
O953        O  0.03893388  0.89403673  0.75919997    -0.73400
O954        O  0.11276063  0.84815196  0.86536813    -0.74000
O955        O  0.15728870  0.78697699  0.75594389    -0.73400
O956        O  0.20961940  0.90577065  0.81421375    -0.74100
O957        O  0.10838023  0.78564881  0.79738420    -0.73500
O958        O  0.22173460  0.85554018  0.77621984    -0.74000
O959        O  0.15983610  0.85928049  0.69303659    -0.73900
O960        O  0.09987395  0.88285646  0.69201531    -0.73700
C961        C  0.12648595  0.97801031  0.75684890     0.78100
C962        C  0.12843289  0.87589567  0.88348365     0.78600
C963        C  0.02168630  0.87257486  0.78325599     0.77600
C964        C  0.13262606  0.76839704  0.77595311     0.78000
C965        C  0.23256140  0.88045564  0.80139447     0.79100
C966        C  0.12996806  0.87171072  0.67484119     0.78100
Zn967      Zn  0.33797969  0.85162448  0.62091340     1.49700
Zn968      Zn  0.40644701  0.84543727  0.56016680     1.49400
Zn969      Zn  0.35128183  0.91894920  0.55935668     1.49100
Zn970      Zn  0.40874960  0.90362540  0.62700405     1.49500
O971        O  0.37541920  0.87938284  0.59082216    -1.83100
O972        O  0.34990934  0.79384521  0.61878065    -0.73800
O973        O  0.38881782  0.84999098  0.50558956    -0.73600
O974        O  0.29491041  0.90836186  0.55407004    -0.73100
O975        O  0.39857146  0.79071821  0.57694085    -0.73800
O976        O  0.28558099  0.85921584  0.59427332    -0.73400
O977        O  0.36539330  0.90999797  0.50300652    -0.74000
O978        O  0.39200439  0.95686803  0.63784959    -0.73400
O979        O  0.46348314  0.85865564  0.56413583    -0.74100
O980        O  0.35969055  0.97301514  0.58478940    -0.73500
O981        O  0.46341037  0.90352784  0.60996063    -0.74000
O982        O  0.40614230  0.87870762  0.67749846    -0.73900
O983        O  0.34257624  0.87018650  0.67758518    -0.73700
C984        C  0.37474703  0.77457923  0.59965968     0.78100
C985        C  0.37468985  0.87813805  0.98680481     0.78600
C986        C  0.27362308  0.88190017  0.56767944     0.77600
C987        C  0.37420455  0.98156069  0.61779656     0.78000
C988        C  0.48107165  0.88275597  0.58558404     0.79100
C989        C  0.37448519  0.87579208  0.69538681     0.78100
Zn990      Zn  0.33632783  0.85063186  0.86991581     1.49700
Zn991      Zn  0.40643427  0.84491455  0.81039819     1.49400
Zn992      Zn  0.35109679  0.91850528  0.80991424     1.49100
Zn993      Zn  0.40836541  0.90216025  0.87739677     1.49500
O994        O  0.37480482  0.87856622  0.84084146    -1.83100
O995        O  0.34883647  0.79320533  0.86804158    -0.73800
O996        O  0.38969975  0.85014765  0.75570597    -0.73600
O997        O  0.29440662  0.90826031  0.80447223    -0.73100
O998        O  0.39832572  0.79025451  0.82710802    -0.73800
O999        O  0.28358288  0.85736878  0.84201858    -0.73400
O1000       O  0.36621752  0.91021296  0.75381564    -0.74000
O1001       O  0.39267607  0.95573707  0.88860957    -0.73400
O1002       O  0.46358782  0.85772290  0.81463844    -0.74100
O1003       O  0.36030973  0.97234640  0.83573171    -0.73500
O1004       O  0.46342289  0.90155553  0.86132672    -0.74000
O1005       O  0.40472968  0.87650799  0.92723077    -0.73900
O1006       O  0.34093950  0.86936028  0.92699943    -0.73700
C1007       C  0.37418656  0.77409386  0.84948544     0.78100
C1008       C  0.37601504  0.87871154  0.73723494     0.78600
C1009       C  0.27241922  0.88146947  0.81634224     0.77600
C1010       C  0.37522659  0.98073265  0.86860215     0.78000
C1011       C  0.48120061  0.88124052  0.83667185     0.79100
C1012       C  0.37292496  0.87452558  0.94496267     0.78100
Zn1013     Zn  0.40543286  0.15780002  0.69011002     1.49700
Zn1014     Zn  0.35089661  0.08335863  0.69119534     1.49400
Zn1015     Zn  0.33524850  0.15012078  0.63039789     1.49100
Zn1016     Zn  0.40849008  0.09954755  0.62411143     1.49500
O1017       O  0.37426941  0.12334788  0.66003475    -1.83100
O1018       O  0.38997647  0.15165488  0.74504156    -0.73800
O1019       O  0.29432126  0.09289151  0.69671491    -0.73600
O1020       O  0.34572184  0.20793806  0.63280180    -0.73100
O1021       O  0.36598187  0.09179588  0.74719811    -0.73800
O1022       O  0.39437767  0.21210108  0.67467156    -0.73400
O1023       O  0.28207875  0.14197075  0.65733540    -0.74000
O1024       O  0.40540302  0.12495820  0.57405381    -0.73400
O1025       O  0.35949025  0.02969152  0.66528440    -0.74100
O1026       O  0.34153689  0.13169978  0.57334128    -0.73500
O1027       O  0.39220612  0.04612460  0.61259852    -0.74000
O1028       O  0.46374664  0.10045598  0.64067598    -0.73900
O1029       O  0.46315547  0.14748243  0.68416021    -0.73700
C1030       C  0.37612276  0.12325687  0.76363771     0.78100
C1031       C  0.27152748  0.11839212  0.68374497     0.78600
C1032       C  0.36990243  0.22767117  0.65226996     0.77600
C1033       C  0.37384327  0.12683648  0.55585636     0.78000
C1034       C  0.37417832  0.02132815  0.63234329     0.79100
C1035       C  0.48127353  0.12302718  0.66355652     0.78100
Zn1036     Zn  0.40621932  0.15814609  0.94039495     1.49700
Zn1037     Zn  0.33753164  0.15046247  0.87992818     1.49400
Zn1038     Zn  0.40992997  0.09915593  0.87388992     1.49100
Zn1039     Zn  0.35279469  0.08300011  0.94133234     1.49500
O1040       O  0.37598090  0.12331368  0.90981362    -1.83100
O1041       O  0.39453808  0.21270626  0.92533920    -0.73800
O1042       O  0.34277299  0.13210709  0.82323076    -0.73600
O1043       O  0.46502839  0.10131288  0.89041243    -0.73100
O1044       O  0.34681928  0.20913087  0.88258618    -0.73800
O1045       O  0.46409400  0.14804218  0.93435741    -0.73400
O1046       O  0.40638690  0.12352694  0.82324754    -0.74000
O1047       O  0.36109058  0.02915886  0.91594561    -0.73400
O1048       O  0.28542054  0.14053338  0.90627421    -0.74100
O1049       O  0.39400330  0.04522102  0.86330393    -0.73500
O1050       O  0.29648845  0.09207692  0.94684506    -0.74000
O1051       O  0.36676864  0.09169071  0.99760815    -0.73900
O1052       O  0.39009143  0.15175479  0.99537848    -0.73700
C1053       C  0.37039457  0.22888449  0.90288517     0.78100
C1054       C  0.37466974  0.12637029  0.80544208     0.78600
C1055       C  0.48234840  0.12387622  0.91347590     0.77600
C1056       C  0.37578928  0.02055900  0.88310504     0.78000
C1057       C  0.27428837  0.11752608  0.93294501     0.79100
C1058       C  0.37609202  0.12342728  0.51400348     0.78100
Zn1059     Zn  0.09245729  0.09575820  0.75490512     1.49700
Zn1060     Zn  0.09656809  0.15413153  0.68803186     1.49400
Zn1061     Zn  0.16545662  0.15167892  0.74858950     1.49100
Zn1062     Zn  0.15362095  0.08169155  0.69016050     1.49500
O1063       O  0.12765594  0.12130200  0.72043856    -1.83100
O1064       O  0.03742820  0.10253397  0.74023977    -0.73800
O1065       O  0.10408087  0.20935036  0.70190035    -0.73600
O1066       O  0.15920748  0.13646938  0.80620134    -0.73100
O1067       O  0.03943568  0.14366879  0.69135317    -0.73800
O1068       O  0.09964381  0.11184178  0.80789937    -0.73400
O1069       O  0.15244143  0.20919416  0.74409376    -0.74000
O1070       O  0.20972632  0.09161683  0.68659704    -0.73400
O1071       O  0.11338014  0.14656342  0.63418476    -0.74100
O1072       O  0.21973938  0.14354968  0.72284070    -0.73500
O1073       O  0.14092289  0.08831097  0.63387572    -0.74000
O1074       O  0.14626180  0.02798880  0.71416788    -0.73900
O1075       O  0.10402373  0.04084928  0.76051875    -0.73700
C1076       C  0.02059941  0.12265658  0.71469072     0.78100
C1077       C  0.12715170  0.22699105  0.72417762     0.78600
C1078       C  0.12995243  0.12314672  0.82469968     0.77600
C1079       C  0.23157504  0.11834871  0.69847322     0.78000
C1080       C  0.12928655  0.11864392  0.61657467     0.79100
C1081       C  0.12633881  0.01776755  0.74340984     0.78100
Zn1082     Zn  0.16950629  0.09525773  0.50206553     1.49700
Zn1083     Zn  0.15796159  0.15687608  0.93782241     1.49400
Zn1084     Zn  0.10103340  0.08423896  0.94170883     1.49100
Zn1085     Zn  0.09692537  0.15214080  0.50287199     1.49500
O1086       O  0.13082961  0.12154603  0.97110098    -1.83100
O1087       O  0.22338442  0.09971659  0.97641735    -0.73800
O1088       O  0.14268058  0.15081679  0.88432502    -0.73600
O1089       O  0.10799063  0.02950193  0.96673438    -0.73100
O1090       O  0.21309162  0.14572241  0.93317871    -0.73800
O1091       O  0.15654893  0.03970119  0.00729764    -0.73400
O1092       O  0.11613071  0.09206806  0.88439102    -0.74000
O1093       O  0.04176040  0.14326306  0.98923053    -0.73400
O1094       O  0.15035868  0.21127594  0.95226988    -0.74100
O1095       O  0.04366643  0.09656961  0.94531706    -0.73500
O1096       O  0.10621707  0.20917942  0.99849407    -0.74000
O1097       O  0.10482614  0.13671976  0.55692354    -0.73900
O1098       O  0.16351199  0.11006919  0.55810472    -0.73700
C1099       C  0.23495522  0.12096552  0.94849801     0.78100
C1100       C  0.12994562  0.12158341  0.86668474     0.78600
C1101       C  0.13082435  0.01780031  0.99339237     0.77600
C1102       C  0.02499312  0.12058353  0.96590488     0.78000
C1103       C  0.12827632  0.22796873  0.97624851     0.79100
C1104       C  0.13292282  0.12173309  0.57501416     0.78100
Zn1105     Zn  0.83960076  0.33890904  0.68553462     1.49700
Zn1106     Zn  0.90209333  0.34413870  0.74962550     1.49400
Zn1107     Zn  0.89725907  0.41163429  0.68854197     1.49100
Zn1108     Zn  0.82934405  0.40094159  0.74982020     1.49500
O1109       O  0.86762358  0.37442131  0.71830299    -1.83100
O1110       O  0.84478551  0.28411706  0.70224459    -0.73800
O1111       O  0.95742000  0.35417283  0.73586668    -0.73600
O1112       O  0.88279900  0.40262134  0.63159248    -0.73100
O1113       O  0.89185741  0.28692218  0.74566489    -0.73800
O1114       O  0.85584609  0.34396396  0.63170459    -0.73400
O1115       O  0.95545758  0.40170992  0.69305018    -0.74000
O1116       O  0.84250909  0.45633622  0.75543567    -0.73400
O1117       O  0.89473597  0.35970133  0.80387121    -0.74100
O1118       O  0.88869527  0.46624105  0.71219243    -0.73500
O1119       O  0.83592958  0.38601025  0.80581402    -0.74000
O1120       O  0.77538209  0.39754384  0.72447416    -0.73900
O1121       O  0.78482052  0.35231907  0.68019126    -0.73700
C1122       C  0.86769096  0.26788076  0.72571365     0.78100
C1123       C  0.97445016  0.37788020  0.71361971     0.78600
C1124       C  0.86903729  0.37305252  0.61397672     0.77600
C1125       C  0.86734212  0.47815484  0.73995251     0.78000
C1126       C  0.86685487  0.37461018  0.82233979     0.79100
C1127       C  0.76344858  0.37724549  0.69600501     0.78100
Zn1128     Zn  0.90379484  0.34282760  0.93586220     1.49700
Zn1129     Zn  0.83411222  0.34548035  0.99530902     1.49400
Zn1130     Zn  0.90680756  0.40136729  0.50313718     1.49100
Zn1131     Zn  0.84739697  0.41600946  0.93728391     1.49500
O1132       O  0.87242416  0.37588350  0.96778380    -1.83100
O1133       O  0.89552687  0.28706895  0.94975587    -0.73800
O1134       O  0.83994980  0.35958083  0.55309809    -0.73600
O1135       O  0.96224419  0.39735543  0.48788961    -0.73100
O1136       O  0.84617152  0.28789260  0.99064716    -0.73800
O1137       O  0.96099958  0.35490135  0.93993122    -0.73400
O1138       O  0.90006737  0.38281817  0.55554830    -0.74000
O1139       O  0.85538579  0.47011379  0.96100994    -0.73400
O1140       O  0.78023924  0.35452234  0.96944596    -0.74100
O1141       O  0.89343413  0.45579666  0.51043318    -0.73500
O1142       O  0.79119245  0.40663782  0.93371458    -0.74000
O1143       O  0.85975230  0.40862525  0.88100377    -0.73900
O1144       O  0.88709949  0.35027712  0.88167738    -0.73700
C1145       C  0.87152478  0.26953821  0.97132352     0.78100
C1146       C  0.86944018  0.37173082  0.57199887     0.78600
C1147       C  0.97934360  0.37731882  0.96248278     0.77600
C1148       C  0.87310568  0.47962810  0.99192782     0.78000
C1149       C  0.76892233  0.38010714  0.94525656     0.79100
C1150       C  0.87111574  0.37807485  0.86389085     0.78100
Zn1151     Zn  0.83439062  0.64802260  0.50154009     1.49700
Zn1152     Zn  0.90228259  0.65510824  0.56331886     1.49400
Zn1153     Zn  0.84817205  0.58170157  0.56309014     1.49100
Zn1154     Zn  0.90697226  0.59771858  0.99621615     1.49500
O1155       O  0.87235662  0.62103739  0.53174984    -1.83100
O1156       O  0.84610284  0.70577371  0.50351903    -0.73800
O1157       O  0.88429902  0.64995315  0.61733433    -0.73600
O1158       O  0.79197431  0.59294908  0.56956583    -0.73100
O1159       O  0.89327490  0.70897160  0.54711845    -0.73800
O1160       O  0.78179583  0.64066752  0.52796539    -0.73400
O1161       O  0.86455477  0.58861704  0.61875529    -0.74000
O1162       O  0.89318764  0.54339403  0.98736067    -0.73400
O1163       O  0.95985287  0.64469535  0.56044609    -0.74100
O1164       O  0.85569004  0.52839262  0.53726937    -0.73500
O1165       O  0.96150469  0.60197739  0.01281370    -0.74000
O1166       O  0.90244773  0.61997976  0.94476495    -0.73900
O1167       O  0.83887916  0.62880786  0.94512309    -0.73700
C1168       C  0.87015088  0.72496805  0.52373031     0.78100
C1169       C  0.87232131  0.62053872  0.63555424     0.78600
C1170       C  0.77023567  0.61868214  0.55528066     0.77600
C1171       C  0.87303396  0.51933795  0.50592925     0.78000
C1172       C  0.97850127  0.62253414  0.53791653     0.79100
C1173       C  0.87060114  0.62265981  0.92717577     0.78100
Zn1174     Zn  0.90141101  0.65603263  0.81297929     1.49700
Zn1175     Zn  0.84706753  0.58187179  0.81223401     1.49400
Zn1176     Zn  0.83402375  0.64974505  0.75139191     1.49100
Zn1177     Zn  0.90717324  0.59591913  0.74701879     1.49500
O1178       O  0.87190039  0.62134510  0.78124207    -1.83100
O1179       O  0.88473694  0.64898609  0.86719141    -0.73800
O1180       O  0.79132724  0.59397745  0.81865811    -0.73600
O1181       O  0.84430167  0.70812607  0.75433995    -0.73100
O1182       O  0.86281610  0.58834725  0.86844387    -0.73800
O1183       O  0.89061777  0.71058741  0.79857554    -0.73400
O1184       O  0.78099627  0.64147922  0.77687088    -0.74000
O1185       O  0.90208690  0.61636892  0.69497531    -0.73400
O1186       O  0.85226036  0.52851164  0.78509436    -0.74100
O1187       O  0.83963775  0.63210528  0.69480293    -0.73500
O1188       O  0.89498948  0.54038582  0.73889600    -0.74000
O1189       O  0.96153692  0.60247427  0.76324335    -0.73900
O1190       O  0.95930998  0.64713298  0.80908123    -0.73700
C1191       C  0.87184614  0.61991485  0.88536488     0.78100
C1192       C  0.76950785  0.61948036  0.80420700     0.78600
C1193       C  0.86754794  0.72729742  0.77550475     0.77600
C1194       C  0.87088040  0.62300517  0.67725430     0.78000
C1195       C  0.87164057  0.51771152  0.75546728     0.79100
C1196       C  0.97826210  0.62448456  0.78727958     0.78100
Zn1197     Zn  0.66612329  0.60050479  0.62655643     1.49700
Zn1198     Zn  0.59277734  0.65552905  0.62692125     1.49400
Zn1199     Zn  0.65375441  0.66086777  0.56141986     1.49100
Zn1200     Zn  0.59848191  0.58833141  0.56512927     1.49500
O1201       O  0.62724183  0.62589028  0.59513945    -1.83100
O1202       O  0.66033162  0.61690765  0.68235616    -0.73800
O1203       O  0.60235887  0.71343448  0.62267538    -0.73600
O1204       O  0.70907966  0.64794152  0.55511645    -0.73100
O1205       O  0.59963244  0.63853818  0.68117844    -0.73800
O1206       O  0.71969219  0.60374795  0.60019282    -0.73400
O1207       O  0.64710394  0.71553818  0.57689636    -0.74000
O1208       O  0.61563090  0.59390140  0.50848434    -0.73400
O1209       O  0.53798517  0.64476869  0.61276580    -0.74100
O1210       O  0.63543112  0.65521858  0.50851518    -0.73500
O1211       O  0.54017485  0.59841179  0.56856806    -0.74000
O1212       O  0.60654888  0.53514251  0.58996853    -0.73900
O1213       O  0.65288436  0.54525979  0.63310662    -0.73700
C1214       C  0.62876124  0.62572327  0.69928292     0.78100
C1215       C  0.62501643  0.73234410  0.60077416     0.78600
C1216       C  0.73103633  0.62355477  0.57114661     0.77600
C1217       C  0.62670465  0.62446248  0.99088288     0.78000
C1218       C  0.52111995  0.62153549  0.58991640     0.79100
C1219       C  0.62784748  0.52352424  0.61778273     0.78100
Zn1220     Zn  0.65267257  0.66012718  0.81120618     1.49700
Zn1221     Zn  0.59888077  0.58700619  0.81501083     1.49400
Zn1222     Zn  0.66631940  0.60041105  0.87642455     1.49100
Zn1223     Zn  0.59243851  0.65435575  0.87686456     1.49500
O1224       O  0.62698208  0.62489167  0.84510651    -1.83100
O1225       O  0.63299868  0.65532952  0.75885401    -0.73800
O1226       O  0.60815383  0.53375286  0.83987276    -0.73600
O1227       O  0.71955667  0.60463650  0.84966316    -0.73100
O1228       O  0.61675059  0.59301747  0.75845922    -0.73800
O1229       O  0.70784165  0.64761392  0.80370342    -0.73400
O1230       O  0.65431753  0.54474913  0.88302966    -0.74000
O1231       O  0.59907618  0.63716833  0.93108391    -0.73400
O1232       O  0.54024472  0.59708034  0.81815806    -0.74100
O1233       O  0.66049482  0.61762228  0.93203591    -0.73500
O1234       O  0.53793358  0.64378963  0.86203028    -0.74000
O1235       O  0.60197791  0.71229285  0.87317576    -0.73900
O1236       O  0.64658526  0.71437800  0.82731146    -0.73700
C1237       C  0.62627469  0.62420894  0.74102354     0.78100
C1238       C  0.62986863  0.52243069  0.86753295     0.78600
C1239       C  0.73032064  0.62400202  0.82010259     0.77600
C1240       C  0.62877393  0.62560402  0.94911097     0.78000
C1241       C  0.52112663  0.62056255  0.83914447     0.79100
C1242       C  0.62471717  0.73116962  0.85135000     0.78100
Zn1243     Zn  0.59205300  0.34633483  0.68823510     1.49700
Zn1244     Zn  0.58714110  0.40665200  0.62212519     1.49400
Zn1245     Zn  0.64720159  0.41974662  0.68840030     1.49100
Zn1246     Zn  0.65986784  0.35288792  0.62720896     1.49500
O1247       O  0.62183405  0.38094283  0.65682331    -1.83100
O1248       O  0.53421324  0.35644937  0.68333002    -0.73800
O1249       O  0.59993603  0.46186843  0.61595655    -0.73600
O1250       O  0.63225431  0.41294658  0.74431642    -0.73100
O1251       O  0.53216311  0.40052848  0.63678534    -0.73800
O1252       O  0.60990538  0.35250641  0.74273619    -0.73400
O1253       O  0.64241762  0.47317127  0.66262822    -0.74000
O1254       O  0.71252270  0.36026796  0.65314011    -0.73400
O1255       O  0.59364023  0.38746806  0.56954144    -0.74100
O1256       O  0.70282746  0.40793987  0.69479769    -0.73500
O1257       O  0.65569579  0.37037630  0.57075412    -0.74000
O1258       O  0.64912342  0.29505215  0.62951740    -0.73900
O1259       O  0.60215312  0.29159754  0.67309894    -0.73700
C1260       C  0.51544738  0.37883433  0.66100270     0.78100
C1261       C  0.62323892  0.48420438  0.63304038     0.78600
C1262       C  0.62377007  0.38115686  0.76097930     0.77600
C1263       C  0.72430214  0.38217612  0.68040386     0.78000
C1264       C  0.62502526  0.37991604  0.55251813     0.79100
C1265       C  0.62559287  0.27558061  0.64995566     0.78100
Zn1266     Zn  0.66448027  0.35156093  0.87672318     1.49700
Zn1267     Zn  0.59664026  0.34488076  0.93836674     1.49400
Zn1268     Zn  0.65096345  0.41851834  0.93813009     1.49100
Zn1269     Zn  0.59128682  0.40480531  0.87287510     1.49500
O1270       O  0.62646636  0.37935726  0.90688513    -1.83100
O1271       O  0.65275092  0.29379073  0.87856448    -0.73800
O1272       O  0.61271378  0.35185744  0.99284710    -0.73600
O1273       O  0.70667307  0.40630155  0.94459063    -0.73100
O1274       O  0.60689150  0.29058474  0.92339301    -0.73800
O1275       O  0.71808547  0.35849682  0.90336029    -0.73400
O1276       O  0.63371147  0.41283301  0.99355718    -0.74000
O1277       O  0.60347571  0.46003843  0.86544793    -0.73400
O1278       O  0.53902188  0.35386475  0.93382374    -0.74100
O1279       O  0.64576516  0.47199363  0.91203906    -0.73500
O1280       O  0.53716078  0.39898314  0.88851669    -0.74000
O1281       O  0.59535630  0.38414692  0.82102248    -0.73900
O1282       O  0.65811770  0.36994119  0.81983912    -0.73700
C1283       C  0.62945253  0.27452347  0.89949339     0.78100
C1284       C  0.62461299  0.38151143  0.51076526     0.78600
C1285       C  0.72900853  0.38094998  0.93063965     0.77600
C1286       C  0.62633519  0.48281622  0.88252739     0.78000
C1287       C  0.52029950  0.37668281  0.91203788     0.79100
C1288       C  0.62631870  0.37828374  0.80273756     0.78100
Zn1289     Zn  0.16487657  0.64716507  0.50179189     1.49700
Zn1290     Zn  0.09748247  0.65380019  0.56391497     1.49400
Zn1291     Zn  0.09180720  0.59429359  0.99807495     1.49100
Zn1292     Zn  0.15269667  0.58070458  0.56337686     1.49500
O1293       O  0.12720724  0.61941282  0.53219068    -1.83100
O1294       O  0.15335109  0.70480529  0.50416428    -0.73800
O1295       O  0.03968604  0.64403277  0.56066948    -0.73600
O1296       O  0.09699271  0.61369259  0.94556998    -0.73100
O1297       O  0.10678518  0.70809535  0.54826541    -0.73800
O1298       O  0.15942874  0.62926951  0.94533156    -0.73400
O1299       O  0.03743522  0.60061268  0.01371961    -0.74000
O1300       O  0.14735899  0.52728158  0.53687919    -0.73400
O1301       O  0.11532143  0.64795989  0.61798479    -0.74100
O1302       O  0.10380343  0.53918211  0.99135690    -0.73500
O1303       O  0.13657391  0.58710205  0.61927790    -0.74000
O1304       O  0.20844691  0.59356941  0.56966527    -0.73900
O1305       O  0.21831920  0.64028986  0.52695740    -0.73700
C1306       C  0.12970927  0.72409462  0.52467179     0.78100
C1307       C  0.02071556  0.62198760  0.53824235     0.85000
C1308       C  0.12815369  0.62029912  0.92779285     0.77600
C1309       C  0.12725880  0.51653771  0.50773121     0.78000
C1310       C  0.12801734  0.61879383  0.63614260     0.79100
C1311       C  0.23008860  0.61894426  0.55467681     0.78100
Zn1312     Zn  0.09762601  0.65516525  0.81397741     1.49700
Zn1313     Zn  0.16532064  0.64824336  0.75237026     1.49400
Zn1314     Zn  0.15164412  0.58091627  0.81319125     1.49100
Zn1315     Zn  0.09155305  0.59587750  0.74772533     1.49500
O1316       O  0.12702491  0.62049746  0.78219041    -1.83100
O1317       O  0.10898497  0.70953939  0.79941260    -0.73800
O1318       O  0.21809249  0.64001913  0.77819216    -0.73600
O1319       O  0.13483136  0.58672767  0.86882139    -0.73100
O1320       O  0.15532725  0.70654874  0.75519560    -0.73800
O1321       O  0.11458655  0.64794525  0.86820260    -0.73400
O1322       O  0.20762426  0.59293481  0.82039356    -0.74000
O1323       O  0.10207686  0.54031975  0.74105992    -0.73400
O1324       O  0.16030649  0.63027627  0.69574601    -0.74100
O1325       O  0.14545184  0.52763006  0.78648160    -0.73500
O1326       O  0.09774228  0.61513513  0.69534420    -0.74000
O1327       O  0.03727932  0.60306696  0.76301744    -0.73900
O1328       O  0.03947759  0.64652465  0.80992858    -0.73700
C1329       C  0.13226851  0.72594319  0.77632192     0.78100
C1330       C  0.22951798  0.61833104  0.80578224     0.78600
C1331       C  0.12664705  0.61831743  0.88603822     0.77600
C1332       C  0.12502036  0.51717902  0.75745608     0.78000
C1333       C  0.12918273  0.62129481  0.67789967     0.79100
C1334       C  0.02051783  0.62450254  0.78744045     0.78100
Zn1335     Zn  0.16251925  0.39907016  0.75008197     1.49700
Zn1336     Zn  0.09448931  0.41357924  0.68968303     1.49400
Zn1337     Zn  0.14670272  0.34172350  0.68312758     1.49100
Zn1338     Zn  0.08897109  0.34434794  0.75034466     1.49500
O1339       O  0.12238009  0.37543675  0.71917238    -1.83100
O1340       O  0.15263640  0.45512591  0.75619604    -0.73800
O1341       O  0.11332500  0.40840180  0.63291090    -0.73600
O1342       O  0.19988059  0.35827613  0.67179397    -0.73100
O1343       O  0.10434203  0.46645639  0.71552021    -0.73800
O1344       O  0.21565739  0.39199547  0.72399515    -0.73400
O1345       O  0.12229219  0.34483532  0.63272110    -0.74000
O1346       O  0.10128026  0.28682763  0.74523968    -0.73400
O1347       O  0.03597799  0.40244931  0.69340044    -0.74100
O1348       O  0.14665542  0.28679821  0.69999025    -0.73500
O1349       O  0.03401425  0.35415530  0.73572537    -0.74000
O1350       O  0.09555255  0.36091405  0.80504340    -0.73900
O1351       O  0.15596790  0.38336739  0.80586101    -0.73700
C1352       C  0.12752005  0.47759325  0.74210672     0.78100
C1353       C  0.12008572  0.37668519  0.61507584     0.78600
C1354       C  0.22423790  0.37709094  0.69131511     0.77600
C1355       C  0.12560161  0.26910426  0.72410382     0.78000
C1356       C  0.01704542  0.37808775  0.71364589     0.79100
C1357       C  0.12465469  0.37413714  0.82299357     0.78100
Zn1358     Zn  0.09213895  0.34509847  0.50009895     1.49700
Zn1359     Zn  0.16582353  0.39879507  0.50125952     1.49400
Zn1360     Zn  0.15145387  0.34090632  0.93406538     1.49100
Zn1361     Zn  0.09844811  0.41317190  0.93956978     1.49500
O1362       O  0.12656408  0.37533650  0.96913385    -1.83100
O1363       O  0.09598996  0.36276554  0.55413447    -0.73800
O1364       O  0.21949149  0.39280547  0.97479054    -0.73600
O1365       O  0.14777519  0.28697303  0.95078887    -0.73100
O1366       O  0.15685476  0.38358852  0.55759097    -0.73800
O1367       O  0.10389019  0.28818813  0.99736617    -0.73400
O1368       O  0.20617848  0.35411997  0.92543401    -0.74000
O1369       O  0.11491347  0.40728577  0.88247607    -0.73400
O1370       O  0.15538539  0.45474755  0.00697615    -0.74100
O1371       O  0.12916660  0.34456493  0.88259884    -0.73500
O1372       O  0.10811203  0.46601025  0.96505770    -0.74000
O1373       O  0.04032841  0.40248479  0.94346663    -0.73900
O1374       O  0.03789246  0.35292211  0.98418352    -0.73700
C1375       C  0.12444172  0.37537382  0.57336310     0.78100
C1376       C  0.22954398  0.37539079  0.94368582     0.78600
C1377       C  0.12702614  0.26991873  0.97544770     0.77600
C1378       C  0.12277038  0.37575991  0.86480109     0.78000
C1379       C  0.13054892  0.47711966  0.99225981     0.79100
C1380       C  0.02140858  0.37730787  0.96252277     0.78100
Zn1381     Zn  0.32892137  0.40353666  0.62410563     1.49700
Zn1382     Zn  0.39757992  0.41500583  0.68403143     1.49400
Zn1383     Zn  0.34154172  0.34228360  0.68952154     1.49100
Zn1384     Zn  0.40150322  0.34547175  0.62418780     1.49500
O1385       O  0.36780760  0.37715152  0.65519816    -1.83100
O1386       O  0.34038133  0.45983450  0.62024470    -0.73800
O1387       O  0.38326094  0.40814836  0.74141895    -0.73600
O1388       O  0.28719483  0.35555459  0.69519514    -0.73100
O1389       O  0.39053871  0.46938063  0.65898718    -0.73800
O1390       O  0.27419963  0.39629349  0.64750502    -0.73400
O1391       O  0.35851578  0.34862534  0.74237400    -0.74000
O1392       O  0.39123921  0.28820062  0.62933764    -0.73400
O1393       O  0.45470696  0.40312854  0.68013123    -0.74100
O1394       O  0.34676822  0.28670545  0.67530394    -0.73500
O1395       O  0.45673287  0.35439953  0.63843775    -0.74000
O1396       O  0.39437282  0.36093728  0.56968589    -0.73900
O1397       O  0.33692755  0.39017076  0.56800868    -0.73700
C1398       C  0.36681093  0.48144756  0.63336563     0.78100
C1399       C  0.37054952  0.37844593  0.75954643     0.78600
C1400       C  0.26398445  0.37717693  0.67740345     0.77600
C1401       C  0.36856959  0.26967104  0.65139025     0.78000
C1402       C  0.47341020  0.37827579  0.66067456     0.79100
C1403       C  0.36722505  0.37742540  0.55138837     0.78100
Zn1404     Zn  0.34611132  0.41766682  0.93662566     1.49700
Zn1405     Zn  0.33470929  0.34811563  0.87673253     1.49400
Zn1406     Zn  0.40708740  0.40540879  0.87205615     1.49100
Zn1407     Zn  0.40216758  0.34449879  0.93790284     1.49500
O1408       O  0.37196750  0.37841513  0.90572576    -1.83100
O1409       O  0.29056079  0.40522773  0.94245432    -0.73800
O1410       O  0.34154459  0.36309088  0.81964387    -0.73600
O1411       O  0.39664213  0.46097412  0.86746549    -0.73100
O1412       O  0.28088862  0.35701667  0.90127904    -0.73800
O1413       O  0.35129580  0.47156155  0.91127745    -0.73400
O1414       O  0.39999111  0.39028107  0.81852233    -0.74000
O1415       O  0.45947258  0.35424493  0.93397566    -0.73400
O1416       O  0.34555395  0.28984318  0.88139404    -0.74100
O1417       O  0.46145692  0.39765745  0.88698034    -0.73500
O1418       O  0.39262478  0.28913211  0.92477928    -0.74000
O1419       O  0.38603606  0.35251063  0.99194718    -0.73900
O1420       O  0.36058977  0.41170479  0.99269421    -0.73700
C1421       C  0.26897360  0.37948027  0.92813320     0.78100
C1422       C  0.37040059  0.37749552  0.80146140     0.78600
C1423       C  0.37245451  0.48313099  0.88329101     0.77600
C1424       C  0.47822773  0.37641191  0.91160438     0.78000
C1425       C  0.36952230  0.27147121  0.90242821     0.79100
C1426       C  0.37126574  0.38087816  0.50981151     0.78100
Zn1427     Zn  0.34716808  0.66025770  0.56140153     1.49700
Zn1428     Zn  0.40114555  0.58608816  0.56690697     1.49400
Zn1429     Zn  0.40714489  0.65573163  0.62705319     1.49100
Zn1430     Zn  0.33326456  0.60086731  0.62715902     1.49500
O1431       O  0.37284527  0.62509741  0.59591670    -1.83100
O1432       O  0.36850160  0.65522438  0.50963147    -0.73800
O1433       O  0.45956051  0.59677871  0.57021781    -0.73600
O1434       O  0.39750139  0.71375354  0.62177244    -0.73100
O1435       O  0.38404573  0.59264421  0.50965793    -0.73800
O1436       O  0.35171172  0.71542117  0.57701502    -0.73400
O1437       O  0.46176902  0.64503199  0.61245611    -0.74000
O1438       O  0.33997674  0.61689510  0.68293255    -0.73400
O1439       O  0.39156985  0.53212651  0.59271403    -0.74100
O1440       O  0.40037538  0.63949879  0.68171864    -0.73500
O1441       O  0.34348412  0.54482652  0.63310350    -0.74000
O1442       O  0.27992316  0.60582842  0.60076256    -0.73900
O1443       O  0.29212239  0.64665594  0.55299778    -0.73700
C1444       C  0.37520268  0.62398898  0.99196247     0.78100
C1445       C  0.47858928  0.62115675  0.59025937     0.78600
C1446       C  0.37410198  0.73241219  0.60045128     0.77600
C1447       C  0.37138545  0.62631902  0.69985481     0.78000
C1448       C  0.36800254  0.52161590  0.61922379     0.79100
C1449       C  0.26936985  0.62397009  0.57036363     0.78100
Zn1450     Zn  0.40739924  0.65551382  0.87670832     1.49700
Zn1451     Zn  0.34614199  0.66021582  0.81181569     1.49400
Zn1452     Zn  0.40063501  0.58733424  0.81575550     1.49100
Zn1453     Zn  0.33340353  0.60064867  0.87756027     1.49500
O1454       O  0.37254534  0.62537336  0.84582178    -1.83100
O1455       O  0.39783535  0.71346203  0.87096485    -0.73800
O1456       O  0.36646640  0.65578177  0.75951967    -0.73600
O1457       O  0.45925452  0.59704616  0.81862395    -0.73100
O1458       O  0.35043865  0.71504753  0.82780701    -0.73800
O1459       O  0.46192267  0.64438022  0.86177598    -0.73400
O1460       O  0.38313444  0.59355611  0.75907519    -0.74000
O1461       O  0.34461697  0.54500019  0.88348249    -0.73400
O1462       O  0.29132425  0.64610868  0.80427427    -0.74100
O1463       O  0.39130598  0.53413867  0.84094654    -0.73500
O1464       O  0.27954280  0.60490269  0.85180665    -0.74000
O1465       O  0.34091891  0.61602040  0.93349132    -0.73900
O1466       O  0.40107243  0.63917451  0.93163951    -0.73700
C1467       C  0.37365447  0.73202778  0.85041356     0.78100
C1468       C  0.37370562  0.62478892  0.74163202     0.78600
C1469       C  0.47855358  0.62072275  0.83919648     0.77600
C1470       C  0.36925253  0.52276722  0.86833584     0.78000
C1471       C  0.26877665  0.62318997  0.82156364     0.79100
C1472       C  0.37248808  0.62549490  0.95009179     0.78100
loop_ 
_geom_bond_atom_site_label_1 
_geom_bond_atom_site_label_2 
_geom_bond_distance 
_geom_bond_site_symmetry_2 
_ccdc_geom_bond_type 
Zn1           O5   1.915       .  S
Zn1           O6   2.035       .  S
Zn1          O10   1.978       .  S
Zn1          O17   1.988       .  S
Zn2           O5   1.901       .  S
Zn2           O7   1.949       .  S
Zn2           O9   1.986       .  S
Zn2          O13   1.973       .  S
Zn3           O5   1.932       .  S
Zn3           O8   2.047       .  S
Zn3          O11   2.085       .  S
Zn3          O14   2.073       .  S
Zn4           O5   1.931       .  S
Zn4          O12   1.996       .  S
Zn4          O15   2.084       .  S
Zn4          O16   2.043       .  S
O6           C18   1.273       .  A
O7          C755   1.266   1_554  A
O8           C20   1.277       .  A
O9           C18   1.271       .  A
O10          C20   1.270       .  A
O11         C755   1.283   1_554  A
O12          C21   1.269       .  A
O13          C22   1.265       .  A
O14          C21   1.281       .  A
O15          C22   1.285       .  A
O16          C23   1.282       .  A
O17          C23   1.271       .  A
C18         C479   1.467       .  S
C19         O743   1.265       .  A
C19         O747   1.283       .  A
C19          C45   1.458       .  S
C20         C252   1.455       .  S
C21         C161   1.471   1_565  S
C22          C69   1.465       .  S
C23          C43   1.456       .  S
Zn24         O28   1.917       .  S
Zn24         O29   1.979       .  S
Zn24         O33   1.953       .  S
Zn24         O40   1.978       .  S
Zn25         O28   1.936       .  S
Zn25         O30   1.990       .  S
Zn25         O32   2.087       .  S
Zn25         O36   2.051       .  S
Zn26         O28   1.941       .  S
Zn26         O31   2.078       .  S
Zn26         O34   2.082       .  S
Zn26         O37   2.049       .  S
Zn27         O28   1.923       .  S
Zn27         O35   1.981       .  S
Zn27         O38   1.981       .  S
Zn27         O39   2.033       .  S
O29          C41   1.266       .  A
O30          C42   1.268       .  A
O31          C43   1.284       .  A
O32          C41   1.286       .  A
O33          C43   1.266       .  A
O34          C42   1.281       .  A
O35          C44   1.269       .  A
O36          C45   1.282       .  A
O37          C44   1.276       .  A
O38          C45   1.270       .  A
O39          C46   1.273       .  A
O40          C46   1.270       .  A
C41          C90   1.478       .  S
C42         C182   1.473   1_565  S
C44         C275   1.458       .  S
C46         C506   1.464       .  S
Zn47        O787   1.959       .  S
Zn47         O52   2.016       .  S
Zn47        O792   1.984       .  S
Zn47        O799   2.080       .  S
Zn48        O787   1.933       .  S
Zn48         O55   1.982       .  S
Zn48        O789   2.021       .  S
Zn48        O795   2.027       .  S
Zn49         O51   1.939       .  S
Zn49         O54   2.073       .  S
Zn49         O57   2.061       .  S
Zn49         O60   2.065       .  S
Zn50         O51   1.927       .  S
Zn50         O58   1.943       .  S
Zn50         O61   1.990       .  S
Zn50         O62   1.960       .  S
O51        Zn783   1.959   1_554  S
O51        Zn784   1.933   1_554  S
O52          C64   1.278       .  A
O53        Zn784   2.021   1_554  S
O53          C65   1.274       .  A
O54          C66   1.283       .  A
O55          C64   1.271       .  A
O56        Zn783   1.984       .  S
O56          C66   1.267   1_556  A
O57          C65   1.277       .  A
O58          C67   1.265       .  A
O59        Zn784   2.027   1_554  S
O59          C68   1.273       .  A
O60          C67   1.285       .  A
O61          C68   1.270       .  A
O62          C69   1.262       .  A
O63        Zn783   2.080   1_554  S
O63          C69   1.281       .  A
C64          C88   1.453       .  S
C65         C205   1.482   1_655  S
C66         C869   1.476   1_564  S
C67          C92   1.455       .  S
C68         C432   1.454       .  S
Zn70         O74   1.922       .  S
Zn70         O75   1.987       .  S
Zn70         O79   1.962       .  S
Zn70         O86   1.938       .  S
Zn71         O74   1.929       .  S
Zn71         O76   1.980       .  S
Zn71         O78   2.024       .  S
Zn71         O82   1.994       .  S
Zn72         O74   1.955       .  S
Zn72         O77   2.066       .  S
Zn72         O80   2.013       .  S
Zn72         O83   1.979       .  S
Zn73         O74   1.946       .  S
Zn73         O81   2.084       .  S
Zn73         O84   2.055       .  S
Zn73         O85   2.070       .  S
O75          C87   1.271       .  A
O76          C88   1.271       .  A
O77          C89   1.279       .  A
O78          C87   1.272       .  A
O79          C89   1.263       .  A
O80          C88   1.277       .  A
O81          C90   1.285       .  A
O82          C91   1.272       .  A
O83          C90   1.266       .  A
O84          C91   1.276       .  A
O85          C92   1.285       .  A
O86          C92   1.263       .  A
C87         C227   1.464   1_655  S
C89         C110   1.460   1_565  S
C91         C457   1.474       .  S
Zn93         O97   1.899       .  S
Zn93         O98   1.969       .  S
Zn93        O102   1.944       .  S
Zn93        O109   1.971       .  S
Zn94         O97   1.930       .  S
Zn94         O99   1.998       .  S
Zn94        O101   2.069       .  S
Zn94        O105   2.025       .  S
Zn95         O97   1.926       .  S
Zn95        O100   2.080       .  S
Zn95        O103   2.051       .  S
Zn95        O106   2.044       .  S
Zn96         O97   1.912       .  S
Zn96        O104   1.974       .  S
Zn96        O107   1.989       .  S
Zn96        O108   2.033       .  S
O98         C110   1.265       .  A
O99         C111   1.269       .  A
O100        C112   1.283       .  A
O101        C110   1.282       .  A
O102        C112   1.263       .  A
O103        C111   1.281       .  A
O104        C113   1.269       .  A
O105        C114   1.279       .  A
O106        C113   1.276       .  A
O107        C114   1.270       .  A
O108        C115   1.275       .  A
O109        C115   1.268       .  A
C111        C156   1.474       .  S
C112        C137   1.455       .  S
C113        C386   1.453       .  S
C114        C135   1.452       .  S
C115        C340   1.462   1_655  S
Zn116       O856   1.933   1_554  S
Zn116       O121   1.976       .  S
Zn116       O125   1.948       .  S
Zn116       O132   1.987   1_554  S
Zn117       O120   1.953       .  S
Zn117       O122   1.990       .  S
Zn117       O124   2.081       .  S
Zn117       O128   2.030       .  S
Zn118       O120   1.948       .  S
Zn118       O126   2.065       .  S
Zn118       O129   2.050       .  S
Zn118       O859   2.065       .  S
Zn119       O120   1.933       .  S
Zn119       O127   2.006       .  S
Zn119       O130   1.987       .  S
Zn119       O131   2.045       .  S
O120       Zn852   1.933       .  S
O121        C869   1.265   1_554  A
O122        C134   1.267       .  A
O123       Zn854   2.065   1_554  S
O123        C135   1.282       .  A
O124        C133   1.284       .  A
O125        C135   1.266       .  A
O126        C134   1.281       .  A
O127        C136   1.273       .  A
O128        C137   1.279       .  A
O129        C136   1.277       .  A
O130        C137   1.271       .  A
O131        C138   1.275       .  A
O132        C874   1.268       .  A
C133        O857   1.265       .  A
C133        C802   1.477   1_545  S
C134        C181   1.477       .  S
C136        C409   1.475       .  S
C138        O868   1.268       .  A
C138        C366   1.460   1_655  S
Zn139       O143   1.940       .  S
Zn139       O144   2.064       .  S
Zn139       O148   2.027       .  S
Zn139       O155   1.978       .  S
Zn140       O143   1.925       .  S
Zn140       O145   1.999       .  S
Zn140       O147   1.981       .  S
Zn140       O151   1.956       .  S
Zn141       O143   1.926       .  S
Zn141       O146   1.999       .  S
Zn141       O149   2.040       .  S
Zn141       O152   1.999       .  S
Zn142       O143   1.947       .  S
Zn142       O150   2.051       .  S
Zn142       O153   2.077       .  S
Zn142       O154   2.085       .  S
O144        C156   1.281       .  A
O145        C157   1.270       .  A
O146        C158   1.272       .  A
O147        C156   1.267       .  A
O148        C158   1.280       .  A
O149        C157   1.274       .  A
O150        C159   1.277       .  A
O151        C160   1.267       .  A
O152        C159   1.271       .  A
O153        C160   1.284       .  A
O154        C161   1.282       .  A
O155        C161   1.265       .  A
C157        C529   1.461       .  S
C158        C184   1.455       .  S
C159        C299   1.463       .  S
C160        C180   1.456       .  S
Zn162       O166   1.922       .  S
Zn162       O167   1.987       .  S
Zn162       O171   1.984       .  S
Zn162       O178   1.953       .  S
Zn163       O166   1.923       .  S
Zn163       O168   1.995       .  S
Zn163       O170   2.039       .  S
Zn163       O174   2.002       .  S
Zn164       O166   1.936       .  S
Zn164       O169   2.077       .  S
Zn164       O172   2.036       .  S
Zn164       O175   1.987       .  S
Zn165       O166   1.943       .  S
Zn165       O173   2.086       .  S
Zn165       O176   2.046       .  S
Zn165       O177   2.077       .  S
O167        C179   1.269       .  A
O168        C180   1.272       .  A
O169        C181   1.283       .  A
O170        C179   1.274       .  A
O171        C181   1.267       .  A
O172        C180   1.281       .  A
O173        C182   1.282       .  A
O174        C183   1.271       .  A
O175        C182   1.267       .  A
O176        C183   1.276       .  A
O177        C920   1.284       .  A
O178        C920   1.266       .  A
C179        C547   1.457       .  S
C183        C319   1.462       .  S
C184        O913   1.284   1_554  A
C184        O914   1.266   1_554  A
Zn185       O925   1.952       .  S
Zn185       O201   2.019       .  S
Zn185       O926   2.077       .  S
Zn185       O930   1.977       .  S
Zn186       O189   1.943       .  S
Zn186       O191   1.945       .  S
Zn186       O193   1.967       .  S
Zn186       O197   1.989       .  S
Zn187       O189   1.954       .  S
Zn187       O192   2.110       .  S
Zn187       O195   2.081       .  S
Zn187       O198   2.063       .  S
Zn188       O925   1.937       .  S
Zn188       O200   1.983       .  S
Zn188       O932   2.020       .  S
Zn188       O935   2.032       .  S
O189       Zn921   1.952   1_554  S
O189       Zn924   1.937   1_554  S
O190       Zn921   2.077   1_554  S
O190        C202   1.281       .  A
O191        C203   1.265       .  A
O192        C204   1.285       .  A
O193        C202   1.263       .  A
O194       Zn921   1.977       .  S
O194        C204   1.265   1_556  A
O195        C203   1.288       .  A
O196       Zn924   2.020   1_554  S
O196        C205   1.274       .  A
O197        C206   1.269       .  A
O198        C205   1.277       .  A
O199       Zn924   2.032   1_554  S
O199        C206   1.273       .  A
O200        C207   1.272       .  A
O201        C207   1.278       .  A
C202        C250   1.475       .  S
C203        C230   1.459       .  S
C204       C1101   1.478   1_564  S
C206        C570   1.456       .  S
C207        C226   1.455       .  S
Zn208       O212   1.926       .  S
Zn208       O213   1.951       .  S
Zn208       O217   1.980       .  S
Zn208       O224   1.932       .  S
Zn209       O212   1.951       .  S
Zn209       O214   2.018       .  S
Zn209       O216   2.060       .  S
Zn209       O220   1.978       .  S
Zn210       O212   1.931       .  S
Zn210       O215   2.032       .  S
Zn210       O218   1.983       .  S
Zn210       O221   1.994       .  S
Zn211       O212   1.950       .  S
Zn211       O219   2.053       .  S
Zn211       O222   2.105       .  S
Zn211       O223   2.085       .  S
O213        C225   1.261       .  A
O214        C226   1.277       .  A
O215        C227   1.273       .  A
O216        C225   1.279       .  A
O217        C227   1.269       .  A
O218        C226   1.271       .  A
O219        C228   1.277       .  A
O220        C229   1.266       .  A
O221        C228   1.272       .  A
O222        C229   1.285       .  A
O223        C230   1.287       .  A
O224        C230   1.263       .  A
C225        C345   1.455   1_565  S
C228        C593   1.472       .  S
C229        C273   1.477       .  S
Zn231       O235   1.925       .  S
Zn231       O236   2.047       .  S
Zn231       O240   2.056       .  S
Zn231       O247   2.076       .  S
Zn232       O235   1.918       .  S
Zn232       O237   1.997       .  S
Zn232       O239   2.003       .  S
Zn232       O243   2.035       .  S
Zn233       O235   1.943       .  S
Zn233       O238   1.997       .  S
Zn233       O241   2.041       .  S
Zn233       O244   2.092       .  S
Zn234       O235   1.902       .  S
Zn234       O242   1.972       .  S
Zn234       O245   1.986       .  S
Zn234       O246   1.957       .  S
O236        C248   1.276       .  A
O237        C985   1.272   1_554  A
O238        C250   1.269       .  A
O239        C248   1.272       .  A
O240        C250   1.282       .  A
O241        C985   1.281   1_554  A
O242        C251   1.265       .  A
O243        C252   1.275       .  A
O244        C251   1.286       .  A
O245        C252   1.269       .  A
O246        C253   1.265       .  A
O247        C253   1.282       .  A
C248        C710   1.462       .  S
C249        O973   1.272       .  A
C249        O977   1.281       .  A
C249        C276   1.459       .  S
C251        C298   1.468   1_565  S
C253        C272   1.457       .  S
Zn254       O258   1.934       .  S
Zn254       O259   2.039       .  S
Zn254       O263   2.083       .  S
Zn254       O270   2.091       .  S
Zn255       O258   1.919       .  S
Zn255       O260   1.994       .  S
Zn255       O262   2.002       .  S
Zn255       O266   2.037       .  S
Zn256       O258   1.936       .  S
Zn256       O261   2.007       .  S
Zn256       O264   2.038       .  S
Zn256       O267   2.095       .  S
Zn257       O258   1.906       .  S
Zn257       O265   1.975       .  S
Zn257       O268   1.990       .  S
Zn257       O269   1.950       .  S
O259        C271   1.276       .  A
O260        C272   1.272       .  A
O261        C273   1.270       .  A
O262        C271   1.272       .  A
O263        C273   1.282       .  A
O264        C272   1.281       .  A
O265        C274   1.265       .  A
O266        C275   1.273       .  A
O267        C274   1.286       .  A
O268        C275   1.269       .  A
O269        C276   1.265       .  A
O270        C276   1.285       .  A
C271        C731   1.459       .  S
C274        C320   1.470   1_565  S
Zn277       O281   1.919       .  S
Zn277       O282   1.993       .  S
Zn277       O286   1.995       .  S
Zn277       O293   2.044       .  S
Zn278       O281   1.937       .  S
Zn278       O283   1.999       .  S
Zn278       O285   2.034       .  S
Zn278       O289   2.088       .  S
Zn279       O281   1.937       .  S
Zn279       O284   2.039       .  S
Zn279       O287   2.087       .  S
Zn279       O290   2.093       .  S
Zn280       O281   1.909       .  S
Zn280       O288   1.952       .  S
Zn280       O291   1.977       .  S
Zn280       O292   2.001       .  S
O282        C294   1.272       .  A
O283        C295   1.269       .  A
O284        C296   1.276       .  A
O285        C294   1.280       .  A
O286        C296   1.271       .  A
O287        C295   1.282       .  A
O288        C297   1.265       .  A
O289        C298   1.285       .  A
O290        C297   1.285       .  A
O291        C298   1.265       .  A
O292        C299   1.270       .  A
O293        C299   1.275       .  A
C294        C318   1.456       .  S
C295        C343   1.477       .  S
C296        C665   1.458       .  S
C297        C322   1.460       .  S
Zn300       O304   1.919       .  S
Zn300       O305   2.004       .  S
Zn300       O309   2.048       .  S
Zn300       O316   2.002       .  S
Zn301       O304   1.934       .  S
Zn301       O306   2.077       .  S
Zn301       O308   2.061       .  S
Zn301       O312   2.055       .  S
Zn302       O304   1.909       .  S
Zn302       O307   1.996       .  S
Zn302       O310   1.955       .  S
Zn302       O313   1.984       .  S
Zn303       O304   1.949       .  S
Zn303       O311   2.084       .  S
Zn303       O314   1.987       .  S
Zn303       O315   2.035       .  S
O305        C317   1.274       .  A
O306        C318   1.283       .  A
O307        C319   1.270       .  A
O308        C317   1.278       .  A
O309        C319   1.276       .  A
O310        C318   1.266       .  A
O311        C320   1.284       .  A
O312        C321   1.282       .  A
O313        C320   1.266       .  A
O314        C321   1.267       .  A
O315       C1058   1.280       .  A
O316       C1058   1.272       .  A
C317        C689   1.477       .  S
C321        C363   1.472       .  S
C322       O1051   1.280   1_554  A
C322       O1052   1.272   1_554  A
Zn323       O327   1.925       .  S
Zn323       O328   1.989       .  S
Zn323       O332   1.938       .  S
Zn323       O339   1.956       .  S
Zn324       O327   1.930       .  S
Zn324       O329   1.991       .  S
Zn324       O331   2.018       .  S
Zn324       O335   1.976       .  S
Zn325       O327   1.944       .  S
Zn325       O330   2.080       .  S
Zn325       O333   2.051       .  S
Zn325       O336   2.103       .  S
Zn326       O327   1.950       .  S
Zn326       O334   1.980       .  S
Zn326       O337   2.016       .  S
Zn326       O338   2.056       .  S
O328        C340   1.271       .  A
O329        C341   1.270       .  A
O330        C342   1.287       .  A
O331        C340   1.271       .  A
O332        C342   1.264       .  A
O333        C341   1.276       .  A
O334        C343   1.266       .  A
O335        C344   1.271       .  A
O336        C343   1.284       .  A
O337        C344   1.277       .  A
O338        C345   1.278       .  A
O339        C345   1.262       .  A
C341        C619   1.461       .  S
C342        C364   1.459       .  S
C344        C368   1.453       .  S
Zn346      O1086   1.946   1_554  S
Zn346       O362   2.023       .  S
Zn346      O1087   2.076   1_554  S
Zn346      O1091   1.986       .  S
Zn347       O350   1.929       .  S
Zn347       O352   1.943       .  S
Zn347       O354   1.957       .  S
Zn347       O358   1.970       .  S
Zn348       O350   1.944       .  S
Zn348       O353   2.102       .  S
Zn348       O356   2.076       .  S
Zn348       O359   2.039       .  S
Zn349      O1086   1.930   1_554  S
Zn349       O361   1.971       .  S
Zn349      O1093   1.995   1_554  S
Zn349      O1096   2.009   1_554  S
O350      Zn1082   1.946       .  S
O350      Zn1085   1.930       .  S
O351      Zn1082   2.076       .  S
O351        C363   1.282       .  A
O352        C364   1.264       .  A
O353        C365   1.284       .  A
O354        C363   1.263       .  A
O355      Zn1082   1.986       .  S
O355        C365   1.267       .  A
O356        C364   1.287       .  A
O357      Zn1085   1.995       .  S
O357        C366   1.269       .  A
O358        C367   1.268       .  A
O359        C366   1.274       .  A
O360      Zn1085   2.009       .  S
O360        C367   1.270       .  A
O361        C368   1.270       .  A
O362        C368   1.278       .  A
C365        C940   1.478   1_545  S
C367        C641   1.455       .  S
Zn369       O373   1.937       .  S
Zn369       O374   1.995       .  S
Zn369       O378   1.960       .  S
Zn369       O385   1.965       .  S
Zn370       O373   1.927       .  S
Zn370       O375   2.008       .  S
Zn370       O377   2.020       .  S
Zn370       O381   1.976       .  S
Zn371       O373   1.947       .  S
Zn371       O376   2.063       .  S
Zn371       O379   2.054       .  S
Zn371       O382   2.085       .  S
Zn372       O373   1.951       .  S
Zn372       O380   1.984       .  S
Zn372       O383   2.025       .  S
Zn372       O384   2.071       .  S
O374        C386   1.270       .  A
O375        C387   1.273       .  A
O376        C388   1.285       .  A
O377        C386   1.272       .  A
O378        C388   1.267       .  A
O379        C387   1.275       .  A
O380        C389   1.266       .  A
O381        C390   1.270       .  A
O382        C389   1.284       .  A
O383        C390   1.279       .  A
O384        C391   1.282       .  A
O385        C391   1.264       .  A
C387        C620   1.477   1_655  S
C388        C410   1.459       .  S
C389        C459   1.481       .  S
C390        C414   1.455       .  S
C391        C527   1.472       .  S
Zn392       O396   1.930       .  S
Zn392       O397   2.013       .  S
Zn392       O401   2.032       .  S
Zn392       O408   1.985       .  S
Zn393       O396   1.947       .  S
Zn393       O400   2.047       .  S
Zn393       O404   2.096       .  S
Zn393      O1134   2.075       .  S
Zn394      O1132   1.925   1_554  S
Zn394       O399   1.999   1_554  S
Zn394       O402   1.944       .  S
Zn394       O405   1.960       .  S
Zn395       O396   1.952       .  S
Zn395       O403   2.067       .  S
Zn395       O406   1.980       .  S
Zn395       O407   2.017       .  S
O396      Zn1130   1.925       .  S
O397        C409   1.274       .  A
O398      Zn1129   2.075   1_554  S
O398        C410   1.286       .  A
O399       C1147   1.270       .  A
O400        C409   1.276       .  A
O401        C411   1.273       .  A
O402        C410   1.266       .  A
O403        C412   1.280       .  A
O404        C413   1.283       .  A
O405       C1148   1.262   1_554  A
O406        C413   1.266       .  A
O407        C414   1.277       .  A
O408        C414   1.272       .  A
C411       O1135   1.270       .  A
C411        C644   1.459   1_655  S
C412       O1141   1.262       .  A
C412       C1171   1.460       .  S
C413        C549   1.475       .  S
Zn415       O419   1.926       .  S
Zn415       O420   2.044       .  S
Zn415       O424   2.058       .  S
Zn415      O1167   2.075   1_554  S
Zn416       O419   1.916       .  S
Zn416       O421   1.985       .  S
Zn416       O423   1.976       .  S
Zn416       O427   2.031       .  S
Zn417       O419   1.936       .  S
Zn417       O422   2.000       .  S
Zn417       O425   2.028       .  S
Zn417       O428   2.071       .  S
Zn418      O1155   1.902       .  S
Zn418       O426   1.967       .  S
Zn418       O429   1.982       .  S
Zn418       O430   1.952       .  S
O419      Zn1154   1.902   1_554  S
O420        C432   1.276       .  A
O421        C433   1.270       .  A
O422        C434   1.269       .  A
O423        C432   1.269       .  A
O424        C434   1.281       .  A
O425        C433   1.279       .  A
O426       C1171   1.265       .  A
O427        C436   1.273       .  A
O428        C435   1.283       .  A
O429       C1172   1.270       .  A
O430        C437   1.266       .  A
O431      Zn1151   2.075       .  S
O431        C437   1.282       .  A
C433        C458   1.451       .  S
C434        C480   1.477       .  S
C435       O1162   1.265   1_554  A
C435       C1148   1.460   1_554  S
C436       O1165   1.271       .  A
C436        C571   1.464   1_655  S
C437        C455   1.456       .  S
Zn438       O442   1.925       .  S
Zn438       O443   1.984       .  S
Zn438       O447   1.992       .  S
Zn438       O454   2.036       .  S
Zn439       O442   1.943       .  S
Zn439       O444   1.991       .  S
Zn439       O446   2.039       .  S
Zn439       O450   2.084       .  S
Zn440       O442   1.942       .  S
Zn440       O445   2.058       .  S
Zn440       O448   2.061       .  S
Zn440       O451   2.067       .  S
Zn441       O442   1.920       .  S
Zn441       O449   1.949       .  S
Zn441       O452   1.991       .  S
Zn441       O453   1.981       .  S
O443        C455   1.270       .  A
O444        C456   1.268       .  A
O445        C457   1.277       .  A
O446        C455   1.281       .  A
O447        C457   1.272       .  A
O448        C456   1.281       .  A
O449        C458   1.266       .  A
O450        C459   1.285       .  A
O451        C458   1.283       .  A
O452        C459   1.267       .  A
O453        C460   1.271       .  A
O454        C460   1.274       .  A
C456        C503   1.475       .  S
C460        C598   1.465   1_655  S
Zn461       O465   1.945       .  S
Zn461       O466   2.029       .  S
Zn461       O470   2.074       .  S
Zn461       O477   1.983       .  S
Zn462       O465   1.924       .  S
Zn462       O467   2.040       .  S
Zn462       O469   1.988       .  S
Zn462       O473   1.998       .  S
Zn463       O465   1.920       .  S
Zn463       O468   1.983       .  S
Zn463       O471   1.984       .  S
Zn463       O474   1.953       .  S
Zn464       O465   1.943       .  S
Zn464       O472   2.064       .  S
Zn464       O475   2.056       .  S
Zn464       O476   2.055       .  S
O466        C478   1.280       .  A
O467        C479   1.275       .  A
O468        C480   1.267       .  A
O469        C478   1.270       .  A
O470        C480   1.282       .  A
O471        C479   1.271       .  A
O472       C1217   1.282   1_554  A
O473        C482   1.273       .  A
O474       C1217   1.266   1_554  A
O475        C482   1.276       .  A
O476        C483   1.281       .  A
O477        C483   1.267       .  A
C478        C501   1.453       .  S
C481       O1208   1.282       .  A
C481       O1210   1.266       .  A
C481        C504   1.453       .  S
C482        C709   1.475       .  S
C483        C525   1.471       .  S
Zn484       O488   1.916       .  S
Zn484       O489   1.948       .  S
Zn484       O493   1.979       .  S
Zn484       O500   1.974       .  S
Zn485       O488   1.940       .  S
Zn485       O490   2.064       .  S
Zn485       O492   2.070       .  S
Zn485       O496   2.066       .  S
Zn486       O488   1.940       .  S
Zn486       O491   2.072       .  S
Zn486       O494   1.988       .  S
Zn486       O497   2.031       .  S
Zn487       O488   1.922       .  S
Zn487       O495   1.988       .  S
Zn487       O498   1.993       .  S
Zn487       O499   2.040       .  S
O489        C501   1.266       .  A
O490        C502   1.282       .  A
O491        C503   1.282       .  A
O492        C501   1.283       .  A
O493        C503   1.266       .  A
O494        C502   1.267       .  A
O495        C504   1.270       .  A
O496        C505   1.278       .  A
O497        C504   1.280       .  A
O498        C505   1.272       .  A
O499        C506   1.275       .  A
O500        C506   1.269       .  A
C502        C550   1.474       .  S
C505        C733   1.476       .  S
Zn507       O511   1.923       .  S
Zn507       O512   2.044       .  S
Zn507       O516   2.002       .  S
Zn507       O523   2.000       .  S
Zn508       O511   1.922       .  S
Zn508       O513   1.977       .  S
Zn508       O515   1.985       .  S
Zn508       O519   1.956       .  S
Zn509       O511   1.945       .  S
Zn509       O514   2.023       .  S
Zn509       O517   2.064       .  S
Zn509       O520   1.985       .  S
Zn510       O511   1.935       .  S
Zn510       O518   2.052       .  S
Zn510       O521   2.057       .  S
Zn510       O522   2.041       .  S
O512        C524   1.275       .  A
O513        C525   1.266       .  A
O514        C526   1.279       .  A
O515        C524   1.269       .  A
O516        C526   1.272       .  A
O517        C525   1.282       .  A
O518        C527   1.280       .  A
O519        C528   1.267       .  A
O520        C527   1.266       .  A
O521        C528   1.281       .  A
O522        C529   1.275       .  A
O523        C529   1.271       .  A
C524        C666   1.458       .  S
C526        C552   1.456       .  S
C528        C548   1.450       .  S
Zn530       O534   1.940       .  S
Zn530       O535   2.045       .  S
Zn530       O539   2.090       .  S
Zn530       O546   2.087       .  S
Zn531       O534   1.922       .  S
Zn531       O536   1.987       .  S
Zn531       O538   1.985       .  S
Zn531       O542   2.029       .  S
Zn532       O534   1.934       .  S
Zn532       O537   1.991       .  S
Zn532       O540   2.025       .  S
Zn532       O543   2.072       .  S
Zn533       O534   1.914       .  S
Zn533       O541   1.978       .  S
Zn533       O544   1.965       .  S
Zn533       O545   1.943       .  S
O535        C547   1.276       .  A
O536       C1284   1.270       .  A
O537        C549   1.268       .  A
O538        C547   1.270       .  A
O539        C549   1.283       .  A
O540       C1284   1.279       .  A
O541        C550   1.266       .  A
O542        C551   1.273       .  A
O543        C550   1.282       .  A
O544        C551   1.268       .  A
O545        C552   1.264       .  A
O546        C552   1.285       .  A
C548       O1272   1.270   1_554  A
C548       O1276   1.279   1_554  A
C551        C688   1.459       .  S
Zn553       O557   1.936       .  S
Zn553       O558   2.040       .  S
Zn553       O569   2.063       .  S
Zn553      O1298   2.065   1_554  S
Zn554       O557   1.923       .  S
Zn554       O559   2.036       .  S
Zn554       O561   1.986       .  S
Zn554       O565   1.987       .  S
Zn555      O1293   1.915       .  S
Zn555       O560   1.952       .  S
Zn555       O563   1.975       .  S
Zn555       O566   1.970       .  S
Zn556       O557   1.938       .  S
Zn556       O564   2.076       .  S
Zn556       O567   2.032       .  S
Zn556       O568   1.996       .  S
O557      Zn1291   1.915   1_554  S
O558        C570   1.275       .  A
O559        C571   1.274       .  A
O560        C572   1.266       .  A
O561        C570   1.269       .  A
O562      Zn1289   2.065       .  S
O562        C572   1.282       .  A
O563       C1307   1.269       .  A
O564        C573   1.284       .  A
O565        C574   1.271       .  A
O566       C1309   1.266       .  A
O567        C574   1.280       .  A
O568        C575   1.268       .  A
O569        C575   1.281       .  A
C571       O1299   1.269       .  A
C572        C595   1.452       .  S
C573       O1302   1.266   1_554  A
C573       C1379   1.473   1_554  S
C574        C597   1.453       .  S
C575        C713   1.477       .  S
Zn576       O580   1.924       .  S
Zn576       O581   1.991       .  S
Zn576       O585   1.988       .  S
Zn576       O592   2.043       .  S
Zn577       O580   1.940       .  S
Zn577       O582   2.058       .  S
Zn577       O584   2.053       .  S
Zn577       O588   2.069       .  S
Zn578       O580   1.942       .  S
Zn578       O583   2.028       .  S
Zn578       O586   2.001       .  S
Zn578       O589   2.078       .  S
Zn579       O580   1.916       .  S
Zn579       O587   1.974       .  S
Zn579       O590   1.949       .  S
Zn579       O591   1.972       .  S
O581        C593   1.272       .  A
O582        C594   1.281       .  A
O583        C595   1.280       .  A
O584        C593   1.277       .  A
O585        C595   1.271       .  A
O586        C594   1.269       .  A
O587        C596   1.265       .  A
O588        C597   1.283       .  A
O589        C596   1.284       .  A
O590        C597   1.265       .  A
O591        C598   1.269       .  A
O592        C598   1.274       .  A
C594        C735   1.477       .  S
C596        C616   1.475       .  S
Zn599       O603   1.939       .  S
Zn599       O604   1.985       .  S
Zn599       O608   2.068       .  S
Zn599       O615   2.025       .  S
Zn600       O603   1.932       .  S
Zn600       O605   2.084       .  S
Zn600       O607   2.069       .  S
Zn600       O611   2.070       .  S
Zn601       O603   1.909       .  S
Zn601       O606   1.971       .  S
Zn601       O609   1.947       .  S
Zn601       O612   1.993       .  S
Zn602       O603   1.917       .  S
Zn602       O610   2.047       .  S
Zn602       O613   2.001       .  S
Zn602       O614   1.997       .  S
O604        C616   1.267       .  A
O605        C617   1.283       .  A
O606        C618   1.264       .  A
O607        C616   1.283       .  A
O608        C618   1.282       .  A
O609        C617   1.266       .  A
O610        C619   1.276       .  A
O611        C620   1.280       .  A
O612        C619   1.269       .  A
O613        C620   1.274       .  A
O614        C621   1.272       .  A
O615        C621   1.279       .  A
C617        C639   1.457       .  S
C618        C664   1.461       .  S
C621        C642   1.454       .  S
Zn622      O1362   1.919   1_554  S
Zn622       O627   1.978       .  S
Zn622      O1367   2.017   1_554  S
Zn622      O1374   1.979   1_554  S
Zn623      O1362   1.938   1_554  S
Zn623       O630   2.050       .  S
Zn623      O1364   2.086   1_554  S
Zn623      O1370   1.984       .  S
Zn624       O626   1.911       .  S
Zn624       O629   1.962       .  S
Zn624       O632   1.975       .  S
Zn624       O635   1.951       .  S
Zn625       O626   1.930       .  S
Zn625       O633   2.073       .  S
Zn625       O636   2.062       .  S
Zn625       O637   2.054       .  S
O626      Zn1358   1.919       .  S
O626      Zn1359   1.938       .  S
O627        C639   1.269       .  A
O628      Zn1359   2.086       .  S
O628        C640   1.286       .  A
O629        C641   1.268       .  A
O630        C639   1.283       .  A
O631      Zn1358   2.017       .  S
O631        C641   1.272       .  A
O632        C640   1.265       .  A
O633        C642   1.283       .  A
O634      Zn1359   1.984       .  S
O634        C643   1.267       .  A
O635        C642   1.265       .  A
O636        C643   1.282       .  A
O637        C644   1.277       .  A
O638      Zn1358   1.979       .  S
O638        C644   1.268       .  A
C640        C685   1.477       .  S
C643       C1309   1.473       .  S
Zn645       O649   1.955       .  S
Zn645       O650   1.997       .  S
Zn645       O654   2.080       .  S
Zn645       O661   2.021       .  S
Zn646       O649   1.946       .  S
Zn646       O651   2.067       .  S
Zn646       O653   2.091       .  S
Zn646       O657   2.028       .  S
Zn647       O649   1.927       .  S
Zn647       O652   1.950       .  S
Zn647       O655   1.939       .  S
Zn647       O658   1.997       .  S
Zn648       O649   1.932       .  S
Zn648       O656   2.025       .  S
Zn648       O659   2.002       .  S
Zn648       O660   1.982       .  S
O650        C662   1.268       .  A
O651        C663   1.285       .  A
O652        C664   1.262       .  A
O653        C662   1.282       .  A
O654        C664   1.282       .  A
O655        C663   1.264       .  A
O656        C665   1.272       .  A
O657        C666   1.273       .  A
O658        C665   1.269       .  A
O659        C666   1.271       .  A
O660        C667   1.272       .  A
O661        C667   1.278       .  A
C662        C712   1.477       .  S
C663        C686   1.456       .  S
C667        C690   1.455       .  S
Zn668       O672   1.951       .  S
Zn668       O673   1.985       .  S
Zn668       O677   2.074       .  S
Zn668       O684   2.021       .  S
Zn669       O672   1.945       .  S
Zn669       O674   2.063       .  S
Zn669       O676   2.075       .  S
Zn669       O680   2.062       .  S
Zn670       O672   1.931       .  S
Zn670       O675   1.967       .  S
Zn670       O678   1.947       .  S
Zn670       O681   1.974       .  S
Zn671       O672   1.931       .  S
Zn671       O679   2.020       .  S
Zn671       O682   2.000       .  S
Zn671       O683   1.978       .  S
O673        C685   1.266       .  A
O674        C686   1.284       .  A
O675        C687   1.263       .  A
O676        C685   1.283       .  A
O677        C687   1.282       .  A
O678        C686   1.265       .  A
O679        C688   1.272       .  A
O680        C689   1.277       .  A
O681        C688   1.270       .  A
O682        C689   1.272       .  A
O683       C1426   1.271       .  A
O684       C1426   1.278       .  A
C687        C734   1.473       .  S
C690       O1419   1.271   1_554  A
C690       O1420   1.278   1_554  A
Zn691       O695   1.928       .  S
Zn691       O696   1.952       .  S
Zn691       O700   1.994       .  S
Zn691       O707   1.988       .  S
Zn692       O695   1.951       .  S
Zn692       O697   2.062       .  S
Zn692       O699   2.087       .  S
Zn692       O703   2.101       .  S
Zn693       O695   1.926       .  S
Zn693       O698   2.048       .  S
Zn693       O701   1.996       .  S
Zn693       O704   1.994       .  S
Zn694       O695   1.941       .  S
Zn694       O702   2.028       .  S
Zn694       O705   1.986       .  S
Zn694       O706   2.071       .  S
O696       C1444   1.266   1_554  A
O697        C709   1.278       .  A
O698        C710   1.275       .  A
O699       C1444   1.286   1_554  A
O700        C710   1.269       .  A
O701        C709   1.273       .  A
O702        C711   1.280       .  A
O703        C712   1.284       .  A
O704        C711   1.272       .  A
O705        C712   1.266       .  A
O706        C713   1.282       .  A
O707        C713   1.267       .  A
C708       O1432   1.266       .  A
C708       O1435   1.286       .  A
C708        C736   1.457       .  S
C711        C732   1.454       .  S
Zn714       O718   1.924       .  S
Zn714       O719   2.046       .  S
Zn714       O723   1.999       .  S
Zn714       O730   2.002       .  S
Zn715       O718   1.922       .  S
Zn715       O720   1.954       .  S
Zn715       O722   1.986       .  S
Zn715       O726   1.980       .  S
Zn716       O718   1.944       .  S
Zn716       O721   2.063       .  S
Zn716       O724   2.071       .  S
Zn716       O727   2.067       .  S
Zn717       O718   1.948       .  S
Zn717       O725   1.979       .  S
Zn717       O728   2.076       .  S
Zn717       O729   2.030       .  S
O719        C731   1.275       .  A
O720        C732   1.266       .  A
O721        C733   1.277       .  A
O722        C731   1.269       .  A
O723        C733   1.273       .  A
O724        C732   1.283       .  A
O725        C734   1.265       .  A
O726        C735   1.266       .  A
O727        C734   1.283       .  A
O728        C735   1.282       .  A
O729        C736   1.280       .  A
O730        C736   1.272       .  A
Zn737       O741   1.915       .  S
Zn737       O742   2.035       .  S
Zn737       O746   1.978       .  S
Zn737       O753   1.988       .  S
Zn738       O741   1.901       .  S
Zn738       O743   1.949       .  S
Zn738       O745   1.986       .  S
Zn738       O749   1.973       .  S
Zn739       O741   1.932       .  S
Zn739       O744   2.047       .  S
Zn739       O747   2.085       .  S
Zn739       O750   2.073       .  S
Zn740       O741   1.931       .  S
Zn740       O748   1.996       .  S
Zn740       O751   2.084       .  S
Zn740       O752   2.043       .  S
O742        C754   1.273       .  A
O744        C756   1.277       .  A
O745        C754   1.271       .  A
O746        C756   1.270       .  A
O748        C757   1.269       .  A
O749        C758   1.265       .  A
O750        C757   1.281       .  A
O751        C758   1.284       .  A
O752        C759   1.281       .  A
O753        C759   1.271       .  A
C754       C1215   1.467       .  S
C755        C781   1.458       .  S
C756        C988   1.455       .  S
C757        C897   1.471   1_565  S
C758        C805   1.465       .  S
C759        C779   1.456       .  S
Zn760       O764   1.917       .  S
Zn760       O765   1.979       .  S
Zn760       O769   1.953       .  S
Zn760       O776   1.978       .  S
Zn761       O764   1.936       .  S
Zn761       O766   1.990       .  S
Zn761       O768   2.087       .  S
Zn761       O772   2.051       .  S
Zn762       O764   1.941       .  S
Zn762       O767   2.078       .  S
Zn762       O770   2.082       .  S
Zn762       O773   2.049       .  S
Zn763       O764   1.923       .  S
Zn763       O771   1.981       .  S
Zn763       O774   1.981       .  S
Zn763       O775   2.033       .  S
O765        C777   1.266       .  A
O766        C778   1.268       .  A
O767        C779   1.284       .  A
O768        C777   1.286       .  A
O769        C779   1.266       .  A
O770        C778   1.281       .  A
O771        C780   1.269       .  A
O772        C781   1.282       .  A
O773        C780   1.276       .  A
O774        C781   1.270       .  A
O775        C782   1.273       .  A
O776        C782   1.270       .  A
C777        C826   1.478       .  S
C778        C918   1.473   1_565  S
C780       C1011   1.457       .  S
C782       C1242   1.464       .  S
Zn783       O788   2.016       .  S
Zn784       O791   1.982       .  S
Zn785       O787   1.939       .  S
Zn785       O790   2.073       .  S
Zn785       O793   2.061       .  S
Zn785       O796   2.065       .  S
Zn786       O787   1.927       .  S
Zn786       O794   1.943       .  S
Zn786       O797   1.990       .  S
Zn786       O798   1.960       .  S
O788        C800   1.278       .  A
O789        C801   1.274       .  A
O790        C802   1.283       .  A
O791        C800   1.271       .  A
O792        C802   1.266       .  A
O793        C801   1.277       .  A
O794        C803   1.265       .  A
O795        C804   1.273       .  A
O796        C803   1.285       .  A
O797        C804   1.270       .  A
O798        C805   1.262       .  A
O799        C805   1.281       .  A
C800        C824   1.453       .  S
C801        C941   1.482   1_655  S
C803        C828   1.455       .  S
C804       C1168   1.453       .  S
Zn806       O810   1.922       .  S
Zn806       O811   1.987       .  S
Zn806       O815   1.962       .  S
Zn806       O822   1.938       .  S
Zn807       O810   1.929       .  S
Zn807       O812   1.980       .  S
Zn807       O814   2.024       .  S
Zn807       O818   1.994       .  S
Zn808       O810   1.955       .  S
Zn808       O813   2.065       .  S
Zn808       O816   2.013       .  S
Zn808       O819   1.979       .  S
Zn809       O810   1.946       .  S
Zn809       O817   2.084       .  S
Zn809       O820   2.055       .  S
Zn809       O821   2.070       .  S
O811        C823   1.271       .  A
O812        C824   1.271       .  A
O813        C825   1.280       .  A
O814        C823   1.272       .  A
O815        C825   1.263       .  A
O816        C824   1.277       .  A
O817        C826   1.285       .  A
O818        C827   1.272       .  A
O819        C826   1.266       .  A
O820        C827   1.276       .  A
O821        C828   1.285       .  A
O822        C828   1.263       .  A
C823        C963   1.464   1_655  S
C825        C846   1.460   1_565  S
C827       C1193   1.473       .  S
Zn829       O833   1.899       .  S
Zn829       O834   1.970       .  S
Zn829       O838   1.944       .  S
Zn829       O845   1.971       .  S
Zn830       O833   1.930       .  S
Zn830       O835   1.998       .  S
Zn830       O837   2.069       .  S
Zn830       O841   2.025       .  S
Zn831       O833   1.926       .  S
Zn831       O836   2.080       .  S
Zn831       O839   2.051       .  S
Zn831       O842   2.044       .  S
Zn832       O833   1.912       .  S
Zn832       O840   1.974       .  S
Zn832       O843   1.989       .  S
Zn832       O844   2.033       .  S
O834        C846   1.265       .  A
O835        C847   1.269       .  A
O836        C848   1.283       .  A
O837        C846   1.282       .  A
O838        C848   1.263       .  A
O839        C847   1.281       .  A
O840        C849   1.269       .  A
O841        C850   1.279       .  A
O842        C849   1.277       .  A
O843        C850   1.269       .  A
O844        C851   1.275       .  A
O845        C851   1.268       .  A
C847        C892   1.474       .  S
C848        C873   1.455       .  S
C849       C1122   1.454       .  S
C850        C871   1.452       .  S
C851       C1076   1.462   1_655  S
Zn852       O857   1.976       .  S
Zn852       O861   1.948       .  S
Zn852       O868   1.987       .  S
Zn853       O856   1.953       .  S
Zn853       O858   1.990       .  S
Zn853       O860   2.081       .  S
Zn853       O864   2.030       .  S
Zn854       O856   1.948       .  S
Zn854       O862   2.065       .  S
Zn854       O865   2.050       .  S
Zn855       O856   1.933       .  S
Zn855       O863   2.006       .  S
Zn855       O866   1.987       .  S
Zn855       O867   2.045       .  S
O858        C870   1.267       .  A
O859        C871   1.283       .  A
O860        C869   1.284       .  A
O861        C871   1.265       .  A
O862        C870   1.281       .  A
O863        C872   1.273       .  A
O864        C873   1.279       .  A
O865        C872   1.277       .  A
O866        C873   1.271       .  A
O867        C874   1.275       .  A
C870        C917   1.477       .  S
C872       C1145   1.475       .  S
C874       C1102   1.459   1_655  S
Zn875       O879   1.940       .  S
Zn875       O880   2.064       .  S
Zn875       O884   2.027       .  S
Zn875       O891   1.978       .  S
Zn876       O879   1.925       .  S
Zn876       O881   1.999       .  S
Zn876       O883   1.981       .  S
Zn876       O887   1.956       .  S
Zn877       O879   1.926       .  S
Zn877       O882   1.999       .  S
Zn877       O885   2.040       .  S
Zn877       O888   1.999       .  S
Zn878       O879   1.947       .  S
Zn878       O886   2.051       .  S
Zn878       O889   2.077       .  S
Zn878       O890   2.085       .  S
O880        C892   1.281       .  A
O881        C893   1.270       .  A
O882        C894   1.272       .  A
O883        C892   1.267       .  A
O884        C894   1.280       .  A
O885        C893   1.274       .  A
O886        C895   1.277       .  A
O887        C896   1.267       .  A
O888        C895   1.271       .  A
O889        C896   1.284       .  A
O890        C897   1.282       .  A
O891        C897   1.265       .  A
C893       C1265   1.461       .  S
C894        C920   1.455       .  S
C895       C1035   1.463       .  S
C896        C916   1.456       .  S
Zn898       O902   1.922       .  S
Zn898       O903   1.987       .  S
Zn898       O907   1.984       .  S
Zn898       O914   1.953       .  S
Zn899       O902   1.923       .  S
Zn899       O904   1.995       .  S
Zn899       O906   2.039       .  S
Zn899       O910   2.002       .  S
Zn900       O902   1.936       .  S
Zn900       O905   2.077       .  S
Zn900       O908   2.036       .  S
Zn900       O911   1.987       .  S
Zn901       O902   1.943       .  S
Zn901       O909   2.086       .  S
Zn901       O912   2.046       .  S
Zn901       O913   2.077       .  S
O903        C915   1.269       .  A
O904        C916   1.272       .  A
O905        C917   1.283       .  A
O906        C915   1.274       .  A
O907        C917   1.267       .  A
O908        C916   1.281       .  A
O909        C918   1.282       .  A
O910        C919   1.271       .  A
O911        C918   1.267       .  A
O912        C919   1.276       .  A
C915       C1283   1.458       .  S
C919       C1055   1.463       .  S
Zn921       O937   2.019       .  S
Zn922       O925   1.943       .  S
Zn922       O927   1.945       .  S
Zn922       O929   1.967       .  S
Zn922       O933   1.989       .  S
Zn923       O925   1.954       .  S
Zn923       O928   2.110       .  S
Zn923       O931   2.081       .  S
Zn923       O934   2.063       .  S
Zn924       O936   1.983       .  S
O926        C938   1.281       .  A
O927        C939   1.265       .  A
O928        C940   1.284       .  A
O929        C938   1.264       .  A
O930        C940   1.265       .  A
O931        C939   1.288       .  A
O932        C941   1.274       .  A
O933        C942   1.269       .  A
O934        C941   1.278       .  A
O935        C942   1.273       .  A
O936        C943   1.272       .  A
O937        C943   1.278       .  A
C938        C986   1.475       .  S
C939        C966   1.459       .  S
C942       C1306   1.456       .  S
C943        C962   1.455       .  S
Zn944       O948   1.926       .  S
Zn944       O949   1.951       .  S
Zn944       O953   1.980       .  S
Zn944       O960   1.932       .  S
Zn945       O948   1.951       .  S
Zn945       O950   2.018       .  S
Zn945       O952   2.060       .  S
Zn945       O956   1.978       .  S
Zn946       O948   1.931       .  S
Zn946       O951   2.032       .  S
Zn946       O954   1.983       .  S
Zn946       O957   1.994       .  S
Zn947       O948   1.950       .  S
Zn947       O955   2.053       .  S
Zn947       O958   2.105       .  S
Zn947       O959   2.085       .  S
O949        C961   1.261       .  A
O950        C962   1.277       .  A
O951        C963   1.273       .  A
O952        C961   1.279       .  A
O953        C963   1.269       .  A
O954        C962   1.271       .  A
O955        C964   1.277       .  A
O956        C965   1.266       .  A
O957        C964   1.272       .  A
O958        C965   1.285       .  A
O959        C966   1.288       .  A
O960        C966   1.263       .  A
C961       C1081   1.455   1_565  S
C964       C1329   1.472       .  S
C965       C1009   1.477       .  S
Zn967       O971   1.925       .  S
Zn967       O972   2.047       .  S
Zn967       O976   2.056       .  S
Zn967       O983   2.076       .  S
Zn968       O971   1.918       .  S
Zn968       O973   1.997       .  S
Zn968       O975   2.003       .  S
Zn968       O979   2.035       .  S
Zn969       O971   1.943       .  S
Zn969       O974   1.997       .  S
Zn969       O977   2.041       .  S
Zn969       O980   2.092       .  S
Zn970       O971   1.902       .  S
Zn970       O978   1.972       .  S
Zn970       O981   1.986       .  S
Zn970       O982   1.957       .  S
O972        C984   1.276       .  A
O974        C986   1.269       .  A
O975        C984   1.272       .  A
O976        C986   1.282       .  A
O978        C987   1.265       .  A
O979        C988   1.274       .  A
O980        C987   1.286       .  A
O981        C988   1.269       .  A
O982        C989   1.266       .  A
O983        C989   1.282       .  A
C984       C1446   1.462       .  S
C985       C1012   1.459       .  S
C987       C1034   1.468   1_565  S
C989       C1008   1.457       .  S
Zn990       O994   1.934       .  S
Zn990       O995   2.039       .  S
Zn990       O999   2.083       .  S
Zn990      O1006   2.091       .  S
Zn991       O994   1.919       .  S
Zn991       O996   1.994       .  S
Zn991       O998   2.002       .  S
Zn991      O1002   2.036       .  S
Zn992       O994   1.936       .  S
Zn992       O997   2.007       .  S
Zn992      O1000   2.038       .  S
Zn992      O1003   2.095       .  S
Zn993       O994   1.906       .  S
Zn993      O1001   1.975       .  S
Zn993      O1004   1.990       .  S
Zn993      O1005   1.950       .  S
O995       C1007   1.276       .  A
O996       C1008   1.272       .  A
O997       C1009   1.271       .  A
O998       C1007   1.272       .  A
O999       C1009   1.282       .  A
O1000      C1008   1.281       .  A
O1001      C1010   1.265       .  A
O1002      C1011   1.274       .  A
O1003      C1010   1.286       .  A
O1004      C1011   1.269       .  A
O1005      C1012   1.265       .  A
O1006      C1012   1.285       .  A
C1007      C1467   1.459       .  S
C1010      C1056   1.470   1_565  S
Zn1013     O1017   1.919       .  S
Zn1013     O1018   1.993       .  S
Zn1013     O1022   1.995       .  S
Zn1013     O1029   2.044       .  S
Zn1014     O1017   1.937       .  S
Zn1014     O1019   1.999       .  S
Zn1014     O1021   2.034       .  S
Zn1014     O1025   2.088       .  S
Zn1015     O1017   1.937       .  S
Zn1015     O1020   2.039       .  S
Zn1015     O1023   2.087       .  S
Zn1015     O1026   2.093       .  S
Zn1016     O1017   1.909       .  S
Zn1016     O1024   1.952       .  S
Zn1016     O1027   1.977       .  S
Zn1016     O1028   2.001       .  S
O1018      C1030   1.272       .  A
O1019      C1031   1.269       .  A
O1020      C1032   1.276       .  A
O1021      C1030   1.280       .  A
O1022      C1032   1.272       .  A
O1023      C1031   1.282       .  A
O1024      C1033   1.265       .  A
O1025      C1034   1.285       .  A
O1026      C1033   1.286       .  A
O1027      C1034   1.265       .  A
O1028      C1035   1.270       .  A
O1029      C1035   1.275       .  A
C1030      C1054   1.456       .  S
C1031      C1079   1.477       .  S
C1032      C1401   1.457       .  S
C1033      C1058   1.460       .  S
Zn1036     O1040   1.919       .  S
Zn1036     O1041   2.004       .  S
Zn1036     O1045   2.048       .  S
Zn1036     O1052   2.002       .  S
Zn1037     O1040   1.934       .  S
Zn1037     O1042   2.077       .  S
Zn1037     O1044   2.062       .  S
Zn1037     O1048   2.055       .  S
Zn1038     O1040   1.909       .  S
Zn1038     O1043   1.996       .  S
Zn1038     O1046   1.955       .  S
Zn1038     O1049   1.984       .  S
Zn1039     O1040   1.949       .  S
Zn1039     O1047   2.084       .  S
Zn1039     O1050   1.987       .  S
Zn1039     O1051   2.035       .  S
O1041      C1053   1.274       .  A
O1042      C1054   1.283       .  A
O1043      C1055   1.270       .  A
O1044      C1053   1.278       .  A
O1045      C1055   1.276       .  A
O1046      C1054   1.265       .  A
O1047      C1056   1.284       .  A
O1048      C1057   1.282       .  A
O1049      C1056   1.266       .  A
O1050      C1057   1.267       .  A
C1053      C1425   1.477       .  S
C1057      C1099   1.472       .  S
Zn1059     O1063   1.925       .  S
Zn1059     O1064   1.989       .  S
Zn1059     O1068   1.938       .  S
Zn1059     O1075   1.956       .  S
Zn1060     O1063   1.930       .  S
Zn1060     O1065   1.991       .  S
Zn1060     O1067   2.018       .  S
Zn1060     O1071   1.976       .  S
Zn1061     O1063   1.944       .  S
Zn1061     O1066   2.080       .  S
Zn1061     O1069   2.051       .  S
Zn1061     O1072   2.103       .  S
Zn1062     O1063   1.950       .  S
Zn1062     O1070   1.980       .  S
Zn1062     O1073   2.016       .  S
Zn1062     O1074   2.056       .  S
O1064      C1076   1.271       .  A
O1065      C1077   1.269       .  A
O1066      C1078   1.287       .  A
O1067      C1076   1.271       .  A
O1068      C1078   1.264       .  A
O1069      C1077   1.276       .  A
O1070      C1079   1.266       .  A
O1071      C1080   1.271       .  A
O1072      C1079   1.284       .  A
O1073      C1080   1.277       .  A
O1074      C1081   1.278       .  A
O1075      C1081   1.262       .  A
C1077      C1355   1.461       .  S
C1078      C1100   1.459       .  S
C1080      C1104   1.452       .  S
Zn1082     O1098   2.023       .  S
Zn1083     O1086   1.929       .  S
Zn1083     O1088   1.943       .  S
Zn1083     O1090   1.957       .  S
Zn1083     O1094   1.969       .  S
Zn1084     O1086   1.944       .  S
Zn1084     O1089   2.101       .  S
Zn1084     O1092   2.076       .  S
Zn1084     O1095   2.039       .  S
Zn1085     O1097   1.971       .  S
O1087      C1099   1.282       .  A
O1088      C1100   1.264       .  A
O1089      C1101   1.284       .  A
O1090      C1099   1.263       .  A
O1091      C1101   1.267   1_554  A
O1092      C1100   1.286       .  A
O1093      C1102   1.269       .  A
O1094      C1103   1.271       .  A
O1095      C1102   1.274       .  A
O1096      C1103   1.268       .  A
O1097      C1104   1.270       .  A
O1098      C1104   1.278       .  A
C1103      C1377   1.455       .  S
Zn1105     O1109   1.937       .  S
Zn1105     O1110   1.995       .  S
Zn1105     O1114   1.960       .  S
Zn1105     O1121   1.965       .  S
Zn1106     O1109   1.927       .  S
Zn1106     O1111   2.008       .  S
Zn1106     O1113   2.020       .  S
Zn1106     O1117   1.976       .  S
Zn1107     O1109   1.947       .  S
Zn1107     O1112   2.063       .  S
Zn1107     O1115   2.054       .  S
Zn1107     O1118   2.085       .  S
Zn1108     O1109   1.951       .  S
Zn1108     O1116   1.984       .  S
Zn1108     O1119   2.025       .  S
Zn1108     O1120   2.071       .  S
O1110      C1122   1.270       .  A
O1111      C1123   1.273       .  A
O1112      C1124   1.285       .  A
O1113      C1122   1.272       .  A
O1114      C1124   1.267       .  A
O1115      C1123   1.275       .  A
O1116      C1125   1.266       .  A
O1117      C1126   1.270       .  A
O1118      C1125   1.284       .  A
O1119      C1126   1.279       .  A
O1120      C1127   1.282       .  A
O1121      C1127   1.264       .  A
C1123      C1356   1.477   1_655  S
C1124      C1146   1.458       .  S
C1125      C1195   1.481       .  S
C1126      C1150   1.455       .  S
C1127      C1263   1.472       .  S
Zn1128     O1132   1.930       .  S
Zn1128     O1133   2.013       .  S
Zn1128     O1137   2.032       .  S
Zn1128     O1144   1.985       .  S
Zn1129     O1132   1.947       .  S
Zn1129     O1136   2.047       .  S
Zn1129     O1140   2.096       .  S
Zn1130     O1135   1.999       .  S
Zn1130     O1138   1.944       .  S
Zn1130     O1141   1.960       .  S
Zn1131     O1132   1.952       .  S
Zn1131     O1139   2.067       .  S
Zn1131     O1142   1.980       .  S
Zn1131     O1143   2.017       .  S
O1133      C1145   1.274       .  A
O1134      C1146   1.286       .  A
O1136      C1145   1.276       .  A
O1137      C1147   1.273       .  A
O1138      C1146   1.266       .  A
O1139      C1148   1.280       .  A
O1140      C1149   1.283       .  A
O1142      C1149   1.266       .  A
O1143      C1150   1.277       .  A
O1144      C1150   1.272       .  A
C1147      C1380   1.459   1_655  S
C1149      C1285   1.474       .  S
Zn1151     O1155   1.926       .  S
Zn1151     O1156   2.044       .  S
Zn1151     O1160   2.058       .  S
Zn1152     O1155   1.916       .  S
Zn1152     O1157   1.985       .  S
Zn1152     O1159   1.976       .  S
Zn1152     O1163   2.032       .  S
Zn1153     O1155   1.936       .  S
Zn1153     O1158   2.000       .  S
Zn1153     O1161   2.028       .  S
Zn1153     O1164   2.071       .  S
Zn1154     O1162   1.967       .  S
Zn1154     O1165   1.982   1_556  S
Zn1154     O1166   1.952       .  S
O1156      C1168   1.277       .  A
O1157      C1169   1.270       .  A
O1158      C1170   1.269       .  A
O1159      C1168   1.269       .  A
O1160      C1170   1.281       .  A
O1161      C1169   1.280       .  A
O1163      C1172   1.273       .  A
O1164      C1171   1.282       .  A
O1166      C1173   1.265       .  A
O1167      C1173   1.282       .  A
C1169      C1194   1.451       .  S
C1170      C1216   1.477       .  S
C1172      C1307   1.464   1_655  S
C1173      C1191   1.455       .  S
Zn1174     O1178   1.925       .  S
Zn1174     O1179   1.984       .  S
Zn1174     O1183   1.992       .  S
Zn1174     O1190   2.036       .  S
Zn1175     O1178   1.943       .  S
Zn1175     O1180   1.991       .  S
Zn1175     O1182   2.039       .  S
Zn1175     O1186   2.084       .  S
Zn1176     O1178   1.942       .  S
Zn1176     O1181   2.058       .  S
Zn1176     O1184   2.061       .  S
Zn1176     O1187   2.067       .  S
Zn1177     O1178   1.920       .  S
Zn1177     O1185   1.949       .  S
Zn1177     O1188   1.991       .  S
Zn1177     O1189   1.981       .  S
O1179      C1191   1.271       .  A
O1180      C1192   1.268       .  A
O1181      C1193   1.277       .  A
O1182      C1191   1.281       .  A
O1183      C1193   1.272       .  A
O1184      C1192   1.281       .  A
O1185      C1194   1.266       .  A
O1186      C1195   1.285       .  A
O1187      C1194   1.283       .  A
O1188      C1195   1.267       .  A
O1189      C1196   1.271       .  A
O1190      C1196   1.274       .  A
C1192      C1239   1.475       .  S
C1196      C1334   1.465   1_655  S
Zn1197     O1201   1.945       .  S
Zn1197     O1202   2.029       .  S
Zn1197     O1206   2.074       .  S
Zn1197     O1213   1.983       .  S
Zn1198     O1201   1.924       .  S
Zn1198     O1203   2.040       .  S
Zn1198     O1205   1.988       .  S
Zn1198     O1209   1.998       .  S
Zn1199     O1201   1.920       .  S
Zn1199     O1204   1.983       .  S
Zn1199     O1207   1.984       .  S
Zn1199     O1210   1.953       .  S
Zn1200     O1201   1.943       .  S
Zn1200     O1208   2.064       .  S
Zn1200     O1211   2.056       .  S
Zn1200     O1212   2.055       .  S
O1202      C1214   1.280       .  A
O1203      C1215   1.275       .  A
O1204      C1216   1.267       .  A
O1205      C1214   1.270       .  A
O1206      C1216   1.282       .  A
O1207      C1215   1.270       .  A
O1209      C1218   1.273       .  A
O1211      C1218   1.276       .  A
O1212      C1219   1.281       .  A
O1213      C1219   1.267       .  A
C1214      C1237   1.453       .  S
C1217      C1240   1.453       .  S
C1218      C1445   1.475       .  S
C1219      C1261   1.471       .  S
Zn1220     O1224   1.916       .  S
Zn1220     O1225   1.948       .  S
Zn1220     O1229   1.979       .  S
Zn1220     O1236   1.974       .  S
Zn1221     O1224   1.940       .  S
Zn1221     O1226   2.064       .  S
Zn1221     O1228   2.070       .  S
Zn1221     O1232   2.066       .  S
Zn1222     O1224   1.940       .  S
Zn1222     O1227   2.072       .  S
Zn1222     O1230   1.988       .  S
Zn1222     O1233   2.031       .  S
Zn1223     O1224   1.922       .  S
Zn1223     O1231   1.988       .  S
Zn1223     O1234   1.993       .  S
Zn1223     O1235   2.040       .  S
O1225      C1237   1.265       .  A
O1226      C1238   1.282       .  A
O1227      C1239   1.282       .  A
O1228      C1237   1.283       .  A
O1229      C1239   1.266       .  A
O1230      C1238   1.267       .  A
O1231      C1240   1.270       .  A
O1232      C1241   1.278       .  A
O1233      C1240   1.280       .  A
O1234      C1241   1.272       .  A
O1235      C1242   1.275       .  A
O1236      C1242   1.269       .  A
C1238      C1286   1.474       .  S
C1241      C1469   1.476       .  S
Zn1243     O1247   1.923       .  S
Zn1243     O1248   2.044       .  S
Zn1243     O1252   2.002       .  S
Zn1243     O1259   2.000       .  S
Zn1244     O1247   1.922       .  S
Zn1244     O1249   1.977       .  S
Zn1244     O1251   1.985       .  S
Zn1244     O1255   1.956       .  S
Zn1245     O1247   1.945       .  S
Zn1245     O1250   2.023       .  S
Zn1245     O1253   2.064       .  S
Zn1245     O1256   1.985       .  S
Zn1246     O1247   1.935       .  S
Zn1246     O1254   2.052       .  S
Zn1246     O1257   2.057       .  S
Zn1246     O1258   2.041       .  S
O1248      C1260   1.276       .  A
O1249      C1261   1.266       .  A
O1250      C1262   1.279       .  A
O1251      C1260   1.269       .  A
O1252      C1262   1.272       .  A
O1253      C1261   1.282       .  A
O1254      C1263   1.280       .  A
O1255      C1264   1.266       .  A
O1256      C1263   1.266       .  A
O1257      C1264   1.281       .  A
O1258      C1265   1.275       .  A
O1259      C1265   1.271       .  A
C1260      C1402   1.458       .  S
C1262      C1288   1.456       .  S
C1264      C1284   1.451       .  S
Zn1266     O1270   1.940       .  S
Zn1266     O1271   2.045       .  S
Zn1266     O1275   2.090       .  S
Zn1266     O1282   2.087       .  S
Zn1267     O1270   1.922       .  S
Zn1267     O1272   1.986       .  S
Zn1267     O1274   1.985       .  S
Zn1267     O1278   2.029       .  S
Zn1268     O1270   1.934       .  S
Zn1268     O1273   1.991       .  S
Zn1268     O1276   2.025       .  S
Zn1268     O1279   2.072       .  S
Zn1269     O1270   1.914       .  S
Zn1269     O1277   1.978       .  S
Zn1269     O1280   1.965       .  S
Zn1269     O1281   1.943       .  S
O1271      C1283   1.276       .  A
O1273      C1285   1.268       .  A
O1274      C1283   1.269       .  A
O1275      C1285   1.283       .  A
O1277      C1286   1.266       .  A
O1278      C1287   1.273       .  A
O1279      C1286   1.282       .  A
O1280      C1287   1.268       .  A
O1281      C1288   1.264       .  A
O1282      C1288   1.285       .  A
C1287      C1424   1.459       .  S
Zn1289     O1293   1.936       .  S
Zn1289     O1294   2.040       .  S
Zn1289     O1305   2.063       .  S
Zn1290     O1293   1.923       .  S
Zn1290     O1295   2.036       .  S
Zn1290     O1297   1.986       .  S
Zn1290     O1301   1.987       .  S
Zn1291     O1296   1.952       .  S
Zn1291     O1299   1.975   1_556  S
Zn1291     O1302   1.970       .  S
Zn1292     O1293   1.938       .  S
Zn1292     O1300   2.076       .  S
Zn1292     O1303   2.032       .  S
Zn1292     O1304   1.996       .  S
O1294      C1306   1.276       .  A
O1295      C1307   1.274       .  A
O1296      C1308   1.266       .  A
O1297      C1306   1.269       .  A
O1298      C1308   1.282       .  A
O1300      C1309   1.284       .  A
O1301      C1310   1.271       .  A
O1303      C1310   1.280       .  A
O1304      C1311   1.268       .  A
O1305      C1311   1.281       .  A
C1308      C1331   1.452       .  S
C1310      C1333   1.453       .  S
C1311      C1449   1.477       .  S
Zn1312     O1316   1.924       .  S
Zn1312     O1317   1.991       .  S
Zn1312     O1321   1.988       .  S
Zn1312     O1328   2.043       .  S
Zn1313     O1316   1.940       .  S
Zn1313     O1318   2.058       .  S
Zn1313     O1320   2.054       .  S
Zn1313     O1324   2.069       .  S
Zn1314     O1316   1.942       .  S
Zn1314     O1319   2.028       .  S
Zn1314     O1322   2.001       .  S
Zn1314     O1325   2.078       .  S
Zn1315     O1316   1.916       .  S
Zn1315     O1323   1.974       .  S
Zn1315     O1326   1.949       .  S
Zn1315     O1327   1.972       .  S
O1317      C1329   1.272       .  A
O1318      C1330   1.281       .  A
O1319      C1331   1.280       .  A
O1320      C1329   1.277       .  A
O1321      C1331   1.270       .  A
O1322      C1330   1.269       .  A
O1323      C1332   1.265       .  A
O1324      C1333   1.283       .  A
O1325      C1332   1.284       .  A
O1326      C1333   1.266       .  A
O1327      C1334   1.269       .  A
O1328      C1334   1.274       .  A
C1330      C1471   1.477       .  S
C1332      C1352   1.475       .  S
Zn1335     O1339   1.939       .  S
Zn1335     O1340   1.985       .  S
Zn1335     O1344   2.068       .  S
Zn1335     O1351   2.025       .  S
Zn1336     O1339   1.932       .  S
Zn1336     O1341   2.084       .  S
Zn1336     O1343   2.069       .  S
Zn1336     O1347   2.070       .  S
Zn1337     O1339   1.909       .  S
Zn1337     O1342   1.971       .  S
Zn1337     O1345   1.947       .  S
Zn1337     O1348   1.993       .  S
Zn1338     O1339   1.917       .  S
Zn1338     O1346   2.047       .  S
Zn1338     O1349   2.001       .  S
Zn1338     O1350   1.997       .  S
O1340      C1352   1.267       .  A
O1341      C1353   1.284       .  A
O1342      C1354   1.264       .  A
O1343      C1352   1.283       .  A
O1344      C1354   1.282       .  A
O1345      C1353   1.265       .  A
O1346      C1355   1.276       .  A
O1347      C1356   1.280       .  A
O1348      C1355   1.269       .  A
O1349      C1356   1.274       .  A
O1350      C1357   1.271       .  A
O1351      C1357   1.279       .  A
C1353      C1375   1.457       .  S
C1354      C1400   1.461       .  S
C1357      C1378   1.454       .  S
Zn1358     O1363   1.978       .  S
Zn1359     O1366   2.050       .  S
Zn1360     O1362   1.911       .  S
Zn1360     O1365   1.962       .  S
Zn1360     O1368   1.975       .  S
Zn1360     O1371   1.951       .  S
Zn1361     O1362   1.930       .  S
Zn1361     O1369   2.073       .  S
Zn1361     O1372   2.062       .  S
Zn1361     O1373   2.054       .  S
O1363      C1375   1.269       .  A
O1364      C1376   1.285       .  A
O1365      C1377   1.265       .  A
O1366      C1375   1.283       .  A
O1367      C1377   1.275       .  A
O1368      C1376   1.265       .  A
O1369      C1378   1.283       .  A
O1370      C1379   1.267   1_554  A
O1371      C1378   1.265       .  A
O1372      C1379   1.283       .  A
O1373      C1380   1.277       .  A
O1374      C1380   1.268       .  A
C1376      C1421   1.477       .  S
Zn1381     O1385   1.955       .  S
Zn1381     O1386   1.997       .  S
Zn1381     O1390   2.080       .  S
Zn1381     O1397   2.021       .  S
Zn1382     O1385   1.946       .  S
Zn1382     O1387   2.067       .  S
Zn1382     O1389   2.091       .  S
Zn1382     O1393   2.028       .  S
Zn1383     O1385   1.927       .  S
Zn1383     O1388   1.950       .  S
Zn1383     O1391   1.939       .  S
Zn1383     O1394   1.997       .  S
Zn1384     O1385   1.932       .  S
Zn1384     O1392   2.025       .  S
Zn1384     O1395   2.002       .  S
Zn1384     O1396   1.982       .  S
O1386      C1398   1.268       .  A
O1387      C1399   1.285       .  A
O1388      C1400   1.262       .  A
O1389      C1398   1.282       .  A
O1390      C1400   1.282       .  A
O1391      C1399   1.264       .  A
O1392      C1401   1.272       .  A
O1393      C1402   1.273       .  A
O1394      C1401   1.269       .  A
O1395      C1402   1.271       .  A
O1396      C1403   1.272       .  A
O1397      C1403   1.278       .  A
C1398      C1448   1.477       .  S
C1399      C1422   1.456       .  S
C1403      C1426   1.455       .  S
Zn1404     O1408   1.951       .  S
Zn1404     O1409   1.985       .  S
Zn1404     O1413   2.074       .  S
Zn1404     O1420   2.021       .  S
Zn1405     O1408   1.945       .  S
Zn1405     O1410   2.063       .  S
Zn1405     O1412   2.075       .  S
Zn1405     O1416   2.062       .  S
Zn1406     O1408   1.931       .  S
Zn1406     O1411   1.967       .  S
Zn1406     O1414   1.947       .  S
Zn1406     O1417   1.974       .  S
Zn1407     O1408   1.931       .  S
Zn1407     O1415   2.020       .  S
Zn1407     O1418   2.000       .  S
Zn1407     O1419   1.978       .  S
O1409      C1421   1.266       .  A
O1410      C1422   1.284       .  A
O1411      C1423   1.263       .  A
O1412      C1421   1.283       .  A
O1413      C1423   1.282       .  A
O1414      C1422   1.265       .  A
O1415      C1424   1.272       .  A
O1416      C1425   1.277       .  A
O1417      C1424   1.270       .  A
O1418      C1425   1.272       .  A
C1423      C1470   1.473       .  S
Zn1427     O1431   1.928       .  S
Zn1427     O1432   1.952       .  S
Zn1427     O1436   1.994       .  S
Zn1427     O1443   1.988       .  S
Zn1428     O1431   1.951       .  S
Zn1428     O1433   2.063       .  S
Zn1428     O1435   2.087       .  S
Zn1428     O1439   2.101       .  S
Zn1429     O1431   1.926       .  S
Zn1429     O1434   2.048       .  S
Zn1429     O1437   1.996       .  S
Zn1429     O1440   1.994       .  S
Zn1430     O1431   1.941       .  S
Zn1430     O1438   2.028       .  S
Zn1430     O1441   1.986       .  S
Zn1430     O1442   2.071       .  S
O1433      C1445   1.278       .  A
O1434      C1446   1.275       .  A
O1436      C1446   1.269       .  A
O1437      C1445   1.273       .  A
O1438      C1447   1.280       .  A
O1439      C1448   1.284       .  A
O1440      C1447   1.271       .  A
O1441      C1448   1.266       .  A
O1442      C1449   1.282       .  A
O1443      C1449   1.267       .  A
C1444      C1472   1.458       .  S
C1447      C1468   1.454       .  S
Zn1450     O1454   1.924       .  S
Zn1450     O1455   2.046       .  S
Zn1450     O1459   1.999       .  S
Zn1450     O1466   2.002       .  S
Zn1451     O1454   1.922       .  S
Zn1451     O1456   1.954       .  S
Zn1451     O1458   1.986       .  S
Zn1451     O1462   1.980       .  S
Zn1452     O1454   1.944       .  S
Zn1452     O1457   2.063       .  S
Zn1452     O1460   2.071       .  S
Zn1452     O1463   2.067       .  S
Zn1453     O1454   1.948       .  S
Zn1453     O1461   1.979       .  S
Zn1453     O1464   2.076       .  S
Zn1453     O1465   2.030       .  S
O1455      C1467   1.276       .  A
O1456      C1468   1.266       .  A
O1457      C1469   1.277       .  A
O1458      C1467   1.269       .  A
O1459      C1469   1.273       .  A
O1460      C1468   1.283       .  A
O1461      C1470   1.265       .  A
O1462      C1471   1.266       .  A
O1463      C1470   1.283       .  A
O1464      C1471   1.282       .  A
O1465      C1472   1.280       .  A
O1466      C1472   1.272       .  A
