geometry optimzed in LAMMPS
_audit_creation_date              2020-11-30 
_audit_creation_method            'lammps2cif' 
_symmetry_space_group_name_H-M    'P1' 
_symmetry_Int_Tables_number       1 
_symmetry_cell_setting            triclinic 
loop_ 
_symmetry_equiv_pos_as_xyz 
  x,y,z 
_cell_length_a                    47.08968824 
_cell_length_b                    47.08968320233323 
_cell_length_c                    47.08968315275395 
_cell_angle_alpha                 90.0003051014028 
_cell_angle_beta                  89.99870183851344 
_cell_angle_gamma                 90.00395757229349 
loop_ 
_atom_site_label 
_atom_site_type_symbol 
_atom_site_fract_x 
_atom_site_fract_y 
_atom_site_fract_z 
_atom_site_charge 
O1          O  0.12498357  0.08467311  0.39817547    -0.69500
O2          O  0.12504798  0.16534569  0.39814244    -0.69800
O3          O  0.08467997  0.12503861  0.39817444    -0.69600
O4          O  0.16535215  0.12497876  0.39814392    -0.69600
O5          O  0.16533581  0.12502841  0.35194720    -0.69600
O6          O  0.08466404  0.12495090  0.35197776    -0.69600
O7          O  0.12496306  0.16532622  0.35194579    -0.69600
O8          O  0.12503588  0.08465477  0.35197873    -0.69700
V9          V  0.12501576  0.12500893  0.39726103     1.35200
V10         V  0.12500015  0.12499067  0.35286057     1.35200
C11         C  0.12501003  0.07104715  0.37508234     0.79700
C12         C  0.12500322  0.17895292  0.37503836     0.79700
C13         C  0.07105518  0.12499232  0.37508108     0.79600
C14         C  0.17896087  0.12500279  0.37504041     0.79600
O15         O  0.12501867  0.83467178  0.35194661    -0.69500
O16         O  0.12495858  0.91534355  0.35197137    -0.69800
O17         O  0.16532470  0.87504097  0.35194293    -0.69600
O18         O  0.08465301  0.87497485  0.35197513    -0.69600
O19         O  0.08467019  0.87502978  0.39817190    -0.69600
O20         O  0.16534198  0.87495849  0.39813965    -0.69600
O21         O  0.12504459  0.91532959  0.39816807    -0.69600
O22         O  0.12496728  0.83465752  0.39814335    -0.69700
V23         V  0.12498913  0.87500738  0.35285710     1.35200
V24         V  0.12500575  0.87499398  0.39725762     1.35200
C25         C  0.12499088  0.82104776  0.37504064     0.79700
C26         C  0.12500284  0.92895337  0.37507392     0.79700
C27         C  0.17895013  0.87500059  0.37503588     0.79600
C28         C  0.07104483  0.87500323  0.37507889     0.79600
O29         O  0.91535228  0.12501736  0.35197173    -0.69500
O30         O  0.83468048  0.12495107  0.35194531    -0.69800
O31         O  0.87498570  0.16532042  0.35194889    -0.69600
O32         O  0.87504715  0.08464865  0.35196800    -0.69600
O33         O  0.87496241  0.08465948  0.39816468    -0.69600
O34         O  0.87503832  0.16533172  0.39814561    -0.69600
O35         O  0.83466410  0.12503077  0.39814200    -0.69600
O36         O  0.91533615  0.12495982  0.39816845    -0.69700
V37         V  0.87501603  0.12498468  0.35285660     1.35200
V38         V  0.87500050  0.12499534  0.39725707     1.35200
C39         C  0.92896105  0.12498721  0.37507455     0.79700
C40         C  0.82105544  0.12499093  0.37503910     0.79700
C41         C  0.87501336  0.17894297  0.37504396     0.79600
C42         C  0.87500416  0.07103722  0.37506943     0.79600
O43         O  0.91532489  0.87495722  0.39817444    -0.69500
O44         O  0.83465282  0.87501715  0.39814171    -0.69800
O45         O  0.87495688  0.83465068  0.39815222    -0.69600
O46         O  0.87502176  0.91532279  0.39816406    -0.69600
O47         O  0.87497270  0.91532938  0.35196732    -0.69600
O48         O  0.87504522  0.83465760  0.35195554    -0.69600
O49         O  0.83467270  0.87495496  0.35194499    -0.69600
O50         O  0.91534424  0.87503243  0.35197772    -0.69700
V51         V  0.87498929  0.87498696  0.39726001     1.35200
V52         V  0.87500819  0.87499332  0.35285953     1.35200
C53         C  0.92895134  0.87499667  0.37508145     0.79700
C54         C  0.82104590  0.87498604  0.37503775     0.79700
C55         C  0.87500303  0.82103727  0.37505174     0.79600
C56         C  0.87499740  0.92894293  0.37506772     0.79600
O57         O  0.14804532  0.41534243  0.37497151    -0.69500
O58         O  0.14805742  0.33467043  0.37502811    -0.69800
O59         O  0.14805954  0.37497818  0.33466378    -0.69600
O60         O  0.14804343  0.37503535  0.41533533    -0.69600
O61         O  0.10184673  0.37495670  0.41532726    -0.69600
O62         O  0.10186280  0.37503669  0.33465545    -0.69600
O63         O  0.10186075  0.33466010  0.37495142    -0.69600
O64         O  0.10184858  0.41533196  0.37503185    -0.69700
V65         V  0.14715334  0.37500625  0.37499937     1.35200
V66         V  0.10275286  0.37499643  0.37499151     1.35200
C67         C  0.12494476  0.42895397  0.37500442     0.79700
C68         C  0.12496120  0.32104832  0.37498903     0.79700
C69         C  0.12496396  0.37501007  0.32104285     0.79600
C70         C  0.12494240  0.37499527  0.42894809     0.79600
O71         O  0.14803448  0.41534729  0.62495705    -0.69500
O72         O  0.14805733  0.33467501  0.62502354    -0.69800
O73         O  0.14803958  0.37497761  0.58465472    -0.69600
O74         O  0.14805252  0.37504454  0.66532665    -0.69600
O75         O  0.10185587  0.37495975  0.66533529    -0.69600
O76         O  0.10184285  0.37503006  0.58466307    -0.69600
O77         O  0.10186063  0.33465879  0.62496327    -0.69600
O78         O  0.10183780  0.41533069  0.62503415    -0.69700
V79         V  0.14714790  0.37501078  0.62499078     1.35200
V80         V  0.10274745  0.37499513  0.62499892     1.35200
C81         C  0.12493211  0.42895588  0.62499506     0.79700
C82         C  0.12496281  0.32105000  0.62499219     0.79700
C83         C  0.12493907  0.37500403  0.57104206     0.79600
C84         C  0.12495646  0.37500215  0.67894792     0.79600
O85         O  0.10183283  0.62497620  0.41532832    -0.69500
O86         O  0.10185189  0.62503043  0.33465635    -0.69800
O87         O  0.10183304  0.58466765  0.37496517    -0.69600
O88         O  0.10185247  0.66534006  0.37502067    -0.69600
O89         O  0.14804917  0.66533189  0.37496182    -0.69600
O90         O  0.14802975  0.58466055  0.37504373    -0.69600
O91         O  0.14804856  0.62495384  0.33466630    -0.69600
O92         O  0.14802955  0.62503702  0.41533849    -0.69700
V93         V  0.10274065  0.62500365  0.37499265     1.35200
V94         V  0.14714112  0.62499617  0.37500219     1.35200
C95         C  0.12492781  0.62500803  0.42895027     0.79700
C96         C  0.12495346  0.62498796  0.32104440     0.79700
C97         C  0.12492847  0.57104734  0.37500716     0.79600
C98         C  0.12495424  0.67895289  0.37499104     0.79600
O99         O  0.14801954  0.58466111  0.62502081    -0.69500
O100        O  0.14804819  0.66533272  0.62495636    -0.69800
O101        O  0.14804813  0.62502878  0.66532485    -0.69600
O102        O  0.14801971  0.62496444  0.58465331    -0.69600
O103        O  0.10182305  0.62504615  0.58466988    -0.69600
O104        O  0.10185142  0.62497329  0.66534245    -0.69600
O105        O  0.10185150  0.66534588  0.62504216    -0.69600
O106        O  0.10182282  0.58467362  0.62496942    -0.69700
V107        V  0.14713569  0.62499710  0.62498933     1.35200
V108        V  0.10273523  0.62500960  0.62500584     1.35200
C109        C  0.12491662  0.57105049  0.62499383     0.79700
C110        C  0.12495469  0.67895613  0.62499836     0.79700
C111        C  0.12495473  0.62499930  0.67895055     0.79600
C112        C  0.12491689  0.62500579  0.57104472     0.79600
O113        O  0.62497204  0.14801841  0.41534188    -0.69500
O114        O  0.62502741  0.14804939  0.33466973    -0.69800
O115        O  0.58466453  0.14801716  0.37497871    -0.69600
O116        O  0.66533597  0.14805138  0.37503376    -0.69600
O117        O  0.66535233  0.10185469  0.37494713    -0.69600
O118        O  0.58467994  0.10182041  0.37502949    -0.69600
O119        O  0.62497506  0.10185265  0.33465197    -0.69600
O120        O  0.62505709  0.10182172  0.41532383    -0.69700
V121        V  0.62500039  0.14713597  0.37500552     1.35200
V122        V  0.62501593  0.10273546  0.37498831     1.35200
C123        C  0.62501674  0.12491477  0.42894968     0.79700
C124        C  0.62499745  0.12495616  0.32104395     0.79700
C125        C  0.57105542  0.12491342  0.37500628     0.79600
C126        C  0.67896102  0.12495885  0.37499023     0.79600
O127        O  0.62503492  0.14801402  0.58465047    -0.69500
O128        O  0.62495915  0.14805058  0.66532217    -0.69800
O129        O  0.66533284  0.14804476  0.62502244    -0.69600
O130        O  0.58466155  0.14802046  0.62494977    -0.69600
O131        O  0.58467141  0.10182377  0.62503898    -0.69600
O132        O  0.66534381  0.10184800  0.62497425    -0.69600
O133        O  0.62503850  0.10185387  0.66534266    -0.69600
O134        O  0.62497686  0.10181727  0.58467069    -0.69700
V135        V  0.62499734  0.14713430  0.62498665     1.35200
V136        V  0.62500748  0.10273379  0.62500634     1.35200
C137        C  0.62500771  0.12490962  0.57104376     0.79700
C138        C  0.62499651  0.12495834  0.67894923     0.79700
C139        C  0.67895513  0.12495063  0.62499784     0.79600
C140        C  0.57104967  0.12491838  0.62499403     0.79600
O141        O  0.33466461  0.10186010  0.37503172    -0.69500
O142        O  0.41533627  0.10183805  0.37496686    -0.69800
O143        O  0.37503197  0.10184300  0.41533486    -0.69600
O144        O  0.37496982  0.10185553  0.33466294    -0.69600
O145        O  0.37505422  0.14805221  0.33467050    -0.69600
O146        O  0.37497909  0.14803974  0.41534246    -0.69600
O147        O  0.41535259  0.14803474  0.37504309    -0.69600
O148        O  0.33468034  0.14805681  0.37497042    -0.69700
V149        V  0.37500086  0.10274740  0.37499915     1.35200
V150        V  0.37501611  0.14714787  0.37500636     1.35200
C151        C  0.32105560  0.12496212  0.37500149     0.79700
C152        C  0.42896127  0.12493242  0.37500590     0.79700
C153        C  0.37500481  0.12493918  0.42895546     0.79600
C154        C  0.37501445  0.12495602  0.32104983     0.79600
O155        O  0.33466157  0.10185009  0.62504096    -0.69500
O156        O  0.41533348  0.10183731  0.62497088    -0.69800
O157        O  0.37503303  0.10185183  0.66534239    -0.69600
O158        O  0.37496348  0.10183589  0.58467026    -0.69600
O159        O  0.37504240  0.14803261  0.58466177    -0.69600
O160        O  0.37497492  0.14804856  0.66533340    -0.69600
O161        O  0.41534437  0.14803405  0.62503070    -0.69600
O162        O  0.33467237  0.14804679  0.62496364    -0.69700
V163        V  0.37499793  0.10274189  0.62500611     1.35200
V164        V  0.37500812  0.14714240  0.62499768     1.35200
C165        C  0.32105007  0.12495071  0.62500085     0.79700
C166        C  0.42895573  0.12493335  0.62500031     0.79700
C167        C  0.37500621  0.12495295  0.67895477     0.79600
C168        C  0.37500305  0.12493172  0.57104923     0.79600
O169        O  0.89816076  0.62502874  0.41533076    -0.69500
O170        O  0.89813727  0.62496357  0.33465894    -0.69800
O171        O  0.89814035  0.66533246  0.37496324    -0.69600
O172        O  0.89815755  0.58466066  0.37502676    -0.69600
O173        O  0.85196080  0.58464736  0.37497257    -0.69600
O174        O  0.85194365  0.66531941  0.37504629    -0.69600
O175        O  0.85194054  0.62501932  0.33467309    -0.69600
O176        O  0.85196407  0.62494713  0.41534535    -0.69700
V177        V  0.89725077  0.62499620  0.37499509     1.35200
V178        V  0.85285027  0.62498365  0.37500895     1.35200
C179        C  0.87506646  0.62498749  0.42895495     0.79700
C180        C  0.87503509  0.62499068  0.32104916     0.79700
C181        C  0.87503910  0.67894280  0.37500701     0.79600
C182        C  0.87506221  0.57103721  0.37499873     0.79600
O183        O  0.85197372  0.62502060  0.58466108    -0.69500
O184        O  0.85195094  0.62494810  0.66533289    -0.69800
O185        O  0.85195057  0.66532049  0.62503265    -0.69600
O186        O  0.85197438  0.58464856  0.62496042    -0.69600
O187        O  0.89817109  0.58466543  0.62504094    -0.69600
O188        O  0.89814730  0.66533738  0.62497593    -0.69600
O189        O  0.89814763  0.62503350  0.66534503    -0.69600
O190        O  0.89817043  0.62496865  0.58467265    -0.69700
V191        V  0.85286051  0.62498485  0.62499719     1.35200
V192        V  0.89726100  0.62500100  0.62500862     1.35200
C193        C  0.87507576  0.62499485  0.57104995     0.79700
C194        C  0.87504536  0.62498938  0.67895584     0.79700
C195        C  0.87504489  0.67894581  0.62500302     0.79600
C196        C  0.87507681  0.57104018  0.62499932     0.79600
O197        O  0.89817137  0.41532243  0.37495221    -0.69500
O198        O  0.89814988  0.33465008  0.37502666    -0.69800
O199        O  0.89814390  0.37494982  0.33465320    -0.69600
O200        O  0.89817754  0.37502363  0.41532538    -0.69600
O201        O  0.85198082  0.37496397  0.41534529    -0.69600
O202        O  0.85194720  0.37502753  0.33467371    -0.69600
O203        O  0.85195317  0.33465940  0.37497826    -0.69600
O204        O  0.85197468  0.41533091  0.37504106    -0.69700
V205        V  0.89726262  0.37498646  0.37498966     1.35200
V206        V  0.85286215  0.37499511  0.37500911     1.35200
C207        C  0.87507639  0.42894345  0.37499571     0.79700
C208        C  0.87504778  0.32103784  0.37500445     0.79700
C209        C  0.87503977  0.37499008  0.32104664     0.79600
C210        C  0.87508469  0.37499504  0.42895218     0.79600
O211        O  0.89818085  0.41532361  0.62497125    -0.69500
O212        O  0.89815422  0.33465116  0.62503965    -0.69800
O213        O  0.89818061  0.37495297  0.58466999    -0.69600
O214        O  0.89815504  0.37502263  0.66534213    -0.69600
O215        O  0.85195834  0.37496599  0.66532857    -0.69600
O216        O  0.85198392  0.37503353  0.58465652    -0.69600
O217        O  0.85195754  0.33466355  0.62495750    -0.69600
O218        O  0.85198411  0.41533508  0.62502629    -0.69700
V219        V  0.89726960  0.37498764  0.62500571     1.35200
V220        V  0.85286912  0.37499916  0.62499270     1.35200
C221        C  0.87508673  0.42894617  0.62499790     0.79700
C222        C  0.87505122  0.32104046  0.62499659     0.79700
C223        C  0.87508657  0.37499367  0.57104642     0.79600
C224        C  0.87505238  0.37499612  0.67895232     0.79600
O225        O  0.33466609  0.85194510  0.37504227    -0.69500
O226        O  0.41533803  0.85196870  0.37497785    -0.69800
O227        O  0.37503304  0.85197389  0.41534572    -0.69600
O228        O  0.37497076  0.85193989  0.33467401    -0.69600
O229        O  0.37502915  0.89813664  0.33465486    -0.69600
O230        O  0.37495407  0.89817058  0.41532700    -0.69600
O231        O  0.41532791  0.89816541  0.37502739    -0.69600
O232        O  0.33465567  0.89814180  0.37495457    -0.69700
V233        V  0.37500177  0.85285502  0.37500954     1.35200
V234        V  0.37499188  0.89725551  0.37499124     1.35200
C235        C  0.32104406  0.87503942  0.37499851     0.79700
C236        C  0.42894994  0.87507096  0.37500343     0.79700
C237        C  0.37499231  0.87507780  0.42895322     0.79600
C238        C  0.37500131  0.87503251  0.32104762     0.79600
O239        O  0.33466547  0.85194661  0.62502839    -0.69500
O240        O  0.41533685  0.85197279  0.62495765    -0.69800
O241        O  0.37503692  0.85194709  0.66532923    -0.69600
O242        O  0.37496617  0.85197320  0.58465702    -0.69600
O243        O  0.37502306  0.89816993  0.58467230    -0.69600
O244        O  0.37495662  0.89814376  0.66534433    -0.69600
O245        O  0.41532585  0.89816949  0.62504139    -0.69600
O246        O  0.33465340  0.89814334  0.62497493    -0.69700
V247        V  0.37500105  0.85285805  0.62499340     1.35200
V248        V  0.37498984  0.89725854  0.62500799     1.35200
C249        C  0.32104255  0.87504040  0.62500069     0.79700
C250        C  0.42894816  0.87507521  0.62499988     0.79700
C251        C  0.37499893  0.87504108  0.67895371     0.79600
C252        C  0.37499391  0.87507604  0.57104778     0.79600
O253        O  0.58465230  0.85196105  0.62502519    -0.69500
O254        O  0.66532423  0.85194387  0.62495282    -0.69800
O255        O  0.62502281  0.85193706  0.66532497    -0.69600
O256        O  0.62495330  0.85196790  0.58465305    -0.69600
O257        O  0.62503499  0.89816457  0.58467052    -0.69600
O258        O  0.62496705  0.89813381  0.66534246    -0.69600
O259        O  0.66533756  0.89814054  0.62503937    -0.69600
O260        O  0.58466557  0.89815778  0.62497418    -0.69700
V261        V  0.62498855  0.85285055  0.62498934     1.35200
V262        V  0.62500116  0.89725102  0.62500632     1.35200
C263        C  0.57104211  0.87506242  0.62500072     0.79700
C264        C  0.67894779  0.87503919  0.62499489     0.79700
C265        C  0.62499353  0.87503037  0.67895049     0.79600
C266        C  0.62499388  0.87507130  0.57104486     0.79600
O267        O  0.62497556  0.89816392  0.41532568    -0.69500
O268        O  0.62504075  0.89813839  0.33465359    -0.69800
O269        O  0.58467199  0.89816539  0.37495797    -0.69600
O270        O  0.66534454  0.89813633  0.37502165    -0.69600
O271        O  0.66532444  0.85193962  0.37496711    -0.69600
O272        O  0.58465264  0.85196874  0.37504096    -0.69600
O273        O  0.62495234  0.85194173  0.33466778    -0.69600
O274        O  0.62502444  0.85196722  0.41534003    -0.69700
V275        V  0.62500793  0.89725287  0.37498991     1.35200
V276        V  0.62498893  0.85285243  0.37500362     1.35200
C277        C  0.62500001  0.87506992  0.42894979     0.79700
C278        C  0.62499526  0.87503582  0.32104376     0.79700
C279        C  0.57104535  0.87507177  0.37500064     0.79600
C280        C  0.67895138  0.87503293  0.37499433     0.79600
O281        O  0.12503552  0.83466164  0.60185603    -0.69500
O282        O  0.12497103  0.91533354  0.60183818    -0.69800
O283        O  0.16533948  0.87503266  0.60186132    -0.69600
O284        O  0.08466756  0.87496293  0.60183274    -0.69600
O285        O  0.08465024  0.87504202  0.64802944    -0.69600
O286        O  0.16532226  0.87497433  0.64805803    -0.69600
O287        O  0.12502242  0.91534406  0.64803492    -0.69600
O288        O  0.12494950  0.83467229  0.64805272    -0.69700
V289        V  0.12500316  0.87499785  0.60274522     1.35200
V290        V  0.12498652  0.87500792  0.64714570     1.35200
C291        C  0.12499140  0.82105014  0.62495747     0.79700
C292        C  0.12499674  0.92895560  0.62493350     0.79700
C293        C  0.17894777  0.87500394  0.62496442     0.79600
C294        C  0.07104207  0.87500267  0.62492626     0.79600
O295        O  0.16534529  0.12504304  0.60185407    -0.69500
O296        O  0.08467328  0.12497363  0.60183156    -0.69800
O297        O  0.12497637  0.16534496  0.60185514    -0.69600
O298        O  0.12504129  0.08467268  0.60183097    -0.69600
O299        O  0.12495886  0.08465971  0.64802769    -0.69600
O300        O  0.12503114  0.16533135  0.64805186    -0.69600
O301        O  0.08465923  0.12502872  0.64802829    -0.69600
O302        O  0.16533135  0.12496093  0.64805075    -0.69700
V303        V  0.12500893  0.12500854  0.60274106     1.35200
V304        V  0.12499556  0.12499564  0.64714155     1.35200
C305        C  0.17895522  0.12499995  0.62495621     0.79700
C306        C  0.07104939  0.12500036  0.62492604     0.79700
C307        C  0.12500280  0.17895507  0.62495763     0.79600
C308        C  0.12499917  0.07104940  0.62492550     0.79600
O309        O  0.91533047  0.12503316  0.60182589    -0.69500
O310        O  0.83465830  0.12496132  0.60185492    -0.69800
O311        O  0.87496135  0.16533364  0.60184862    -0.69600
O312        O  0.87502755  0.08466146  0.60183223    -0.69600
O313        O  0.87497446  0.08465242  0.64802898    -0.69600
O314        O  0.87504546  0.16532421  0.64804531    -0.69600
O315        O  0.83467390  0.12502082  0.64805165    -0.69600
O316        O  0.91534559  0.12495546  0.64802259    -0.69700
V317        V  0.87499463  0.12499730  0.60273851     1.35200
V318        V  0.87500949  0.12498850  0.64713901     1.35200
C319        C  0.92895489  0.12499433  0.62491951     0.79700
C320        C  0.82104926  0.12498979  0.62495821     0.79700
C321        C  0.87500446  0.17894580  0.62494986     0.79600
C322        C  0.87500090  0.07104012  0.62492788     0.79600
O323        O  0.87495388  0.91532393  0.60182789    -0.69500
O324        O  0.87502325  0.83465149  0.60184691    -0.69800
O325        O  0.83465207  0.87495137  0.60185091    -0.69600
O326        O  0.91532427  0.87502519  0.60182364    -0.69600
O327        O  0.91533838  0.87496753  0.64802039    -0.69600
O328        O  0.83466668  0.87503107  0.64804761    -0.69600
O329        O  0.87496908  0.83466315  0.64804365    -0.69600
O330        O  0.87503695  0.91533462  0.64802460    -0.69700
V331        V  0.87498847  0.87498802  0.60273537     1.35200
V332        V  0.87500234  0.87499870  0.64713588     1.35200
C333        C  0.87499573  0.92894609  0.62492323     0.79700
C334        C  0.87499797  0.82104043  0.62494874     0.79700
C335        C  0.82104248  0.87499240  0.62495390     0.79600
C336        C  0.92894813  0.87499761  0.62491758     0.79600
O337        O  0.39814818  0.16533737  0.12497049    -0.69500
O338        O  0.39817407  0.08466548  0.12503611    -0.69800
O339        O  0.39816459  0.12496852  0.08466747    -0.69600
O340        O  0.39815693  0.12503363  0.16534001    -0.69600
O341        O  0.35196027  0.12494693  0.16533602    -0.69600
O342        O  0.35196786  0.12501923  0.08466456    -0.69600
O343        O  0.35197739  0.08464722  0.12496405    -0.69600
O344        O  0.35195148  0.16531940  0.12503583    -0.69700
V345        V  0.39726283  0.12500103  0.12500358     1.35200
V346        V  0.35286237  0.12498367  0.12500030     1.35200
C347        C  0.37504550  0.17894527  0.12500214     0.79700
C348        C  0.37508024  0.07103947  0.12499936     0.79700
C349        C  0.37506730  0.12499402  0.07104919     0.79600
C350        C  0.37505703  0.12498845  0.17895493     0.79600
O351        O  0.35196806  0.08464568  0.87497108    -0.69500
O352        O  0.35194637  0.16531795  0.87503865    -0.69800
O353        O  0.35195395  0.12501483  0.83466884    -0.69600
O354        O  0.35195997  0.12494819  0.91534060    -0.69600
O355        O  0.39815665  0.12503251  0.91533600    -0.69600
O356        O  0.39815066  0.12496179  0.83466378    -0.69600
O357        O  0.39814304  0.16533357  0.87496549    -0.69600
O358        O  0.39816478  0.08466179  0.87503516    -0.69700
V359        V  0.35285515  0.12498210  0.87500460     1.35200
V360        V  0.39725561  0.12499721  0.87500011     1.35200
C361        C  0.37507032  0.07103694  0.87500360     0.79700
C362        C  0.37504107  0.17894271  0.87500288     0.79700
C363        C  0.37505106  0.12498679  0.82104942     0.79600
C364        C  0.37505934  0.12499031  0.92895514     0.79600
O365        O  0.35194710  0.83466385  0.87497171    -0.69500
O366        O  0.35198414  0.91533491  0.87504708    -0.69800
O367        O  0.35195430  0.87503789  0.83467308    -0.69600
O368        O  0.35197806  0.87496197  0.91534526    -0.69600
O369        O  0.39817482  0.87501275  0.91533020    -0.69600
O370        O  0.39815097  0.87495131  0.83465840    -0.69600
O371        O  0.39818085  0.91531812  0.87496380    -0.69600
O372        O  0.39814384  0.83464566  0.87502567    -0.69700
V373        V  0.35286406  0.87499921  0.87500889     1.35200
V374        V  0.39726457  0.87498215  0.87499473     1.35200
C375        C  0.37503907  0.82103794  0.87499885     0.79700
C376        C  0.37508824  0.92894328  0.87500653     0.79700
C377        C  0.37504864  0.87499711  0.82104882     0.79600
C378        C  0.37508066  0.87498665  0.92895453     0.79600
O379        O  0.39818450  0.91532132  0.12497784    -0.69500
O380        O  0.39815462  0.83464902  0.12504327    -0.69800
O381        O  0.39818765  0.87495193  0.08467454    -0.69600
O382        O  0.39815122  0.87501829  0.16534680    -0.69600
O383        O  0.35195448  0.87496350  0.16532691    -0.69600
O384        O  0.35199096  0.87503438  0.08465568    -0.69600
O385        O  0.35195795  0.83466307  0.12495482    -0.69600
O386        O  0.35198778  0.91533472  0.12502676    -0.69700
V387        V  0.39727147  0.87498538  0.12501037     1.35200
V388        V  0.35287100  0.87499865  0.12499153     1.35200
C389        C  0.37509099  0.92894490  0.12500229     0.79700
C390        C  0.37505117  0.82103918  0.12499747     0.79700
C391        C  0.37509507  0.87499310  0.07104833     0.79600
C392        C  0.37504662  0.87499111  0.17895366     0.79600
O393        O  0.87494570  0.39814812  0.16534204    -0.69500
O394        O  0.87502585  0.39816851  0.08467000    -0.69800
O395        O  0.83464973  0.39813960  0.12496567    -0.69600
O396        O  0.91532195  0.39817712  0.12504586    -0.69600
O397        O  0.91533965  0.35198044  0.12496533    -0.69600
O398        O  0.83466787  0.35194287  0.12502250    -0.69600
O399        O  0.87497546  0.35197176  0.08465820    -0.69600
O400        O  0.87503255  0.35195143  0.16532966    -0.69700
V401        V  0.87498608  0.39726026  0.12500571     1.35200
V402        V  0.87500350  0.35285978  0.12499421     1.35200
C403        C  0.87498884  0.37504612  0.17895267     0.79700
C404        C  0.87500163  0.37507352  0.07104731     0.79700
C405        C  0.82104195  0.37503493  0.12499099     0.79600
C406        C  0.92894767  0.37508488  0.12500805     0.79600
O407        O  0.91532506  0.39818224  0.87502901    -0.69500
O408        O  0.83465270  0.39814454  0.87496044    -0.69800
O409        O  0.87495314  0.39817465  0.91533058    -0.69600
O410        O  0.87502506  0.39815176  0.83465800    -0.69600
O411        O  0.87497461  0.35195506  0.83467134    -0.69600
O412        O  0.87503993  0.35197797  0.91534285    -0.69600
O413        O  0.83467083  0.35194788  0.87504196    -0.69600
O414        O  0.91534260  0.35198553  0.87497317    -0.69700
V415        V  0.87498917  0.39726527  0.87499462     1.35200
V416        V  0.87500653  0.35286482  0.87500695     1.35200
C417        C  0.92895068  0.37508994  0.87500102     0.79700
C418        C  0.82104484  0.37503991  0.87500316     0.79700
C419        C  0.87499609  0.37507991  0.92895352     0.79600
C420        C  0.87500224  0.37504931  0.82104772     0.79600
O421        O  0.08464829  0.35197137  0.12503014    -0.69500
O422        O  0.16532035  0.35193917  0.12495351    -0.69800
O423        O  0.12502093  0.35194622  0.16532750    -0.69600
O424        O  0.12494762  0.35196425  0.08465567    -0.69600
O425        O  0.12503774  0.39816093  0.08466623    -0.69600
O426        O  0.12497368  0.39814300  0.16533800    -0.69600
O427        O  0.16534193  0.39813586  0.12503272    -0.69600
O428        O  0.08466993  0.39816809  0.12497211    -0.69700
V429        V  0.12498475  0.35285331  0.12499188     1.35200
V430        V  0.12500547  0.39725382  0.12500202     1.35200
C431        C  0.07104224  0.37507521  0.12500357     0.79700
C432        C  0.17894803  0.37503209  0.12499125     0.79700
C433        C  0.12499679  0.37504160  0.17894950     0.79600
C434        C  0.12499261  0.37506565  0.07104407     0.79600
O435        O  0.16534416  0.39813517  0.87502081    -0.69500
O436        O  0.08467259  0.39816725  0.87495764    -0.69800
O437        O  0.12497613  0.39816360  0.91532536    -0.69600
O438        O  0.12504001  0.39813792  0.83465283    -0.69600
O439        O  0.12494979  0.35194127  0.83466741    -0.69600
O440        O  0.12502328  0.35196689  0.91533925    -0.69600
O441        O  0.08465079  0.35197057  0.87504066    -0.69600
O442        O  0.16532299  0.35193845  0.87496659    -0.69700
V443        V  0.12500795  0.39725282  0.87498935     1.35200
V444        V  0.12498727  0.35285237  0.87500312     1.35200
C445        C  0.17895042  0.37503157  0.87499428     0.79700
C446        C  0.07104486  0.37507448  0.87499971     0.79700
C447        C  0.12500019  0.37506935  0.92894922     0.79600
C448        C  0.12499261  0.37503518  0.82104318     0.79600
O449        O  0.64805517  0.87503987  0.16532562    -0.69500
O450        O  0.64803500  0.87497765  0.08465407    -0.69800
O451        O  0.64803687  0.91534427  0.12495925    -0.69600
O452        O  0.64805304  0.83467239  0.12501962    -0.69600
O453        O  0.60185634  0.83465975  0.12496348    -0.69600
O454        O  0.60184016  0.91533207  0.12504035    -0.69600
O455        O  0.60183826  0.87503392  0.08466604    -0.69600
O456        O  0.60185847  0.87495878  0.16533833    -0.69700
V457        V  0.64714687  0.87500821  0.12498997     1.35200
V458        V  0.60274637  0.87499628  0.12500193     1.35200
C459        C  0.62496031  0.87499977  0.17894887     0.79700
C460        C  0.62493348  0.87500665  0.07104324     0.79700
C461        C  0.62493588  0.92895497  0.12500121     0.79600
C462        C  0.62495751  0.82104908  0.12498878     0.79600
O463        O  0.60186283  0.83465880  0.87496043    -0.69500
O464        O  0.60184080  0.91533080  0.87502796    -0.69800
O465        O  0.60185685  0.87502883  0.83465817    -0.69600
O466        O  0.60184667  0.87496113  0.91532991    -0.69600
O467        O  0.64804338  0.87504560  0.91533500    -0.69600
O468        O  0.64805362  0.87497594  0.83466329    -0.69600
O469        O  0.64803753  0.91534664  0.87496422    -0.69600
O470        O  0.64805953  0.83467474  0.87503394    -0.69700
V471        V  0.60274993  0.87499517  0.87499419     1.35200
V472        V  0.64715045  0.87501036  0.87499895     1.35200
C473        C  0.62496496  0.82104989  0.87499812     0.79700
C474        C  0.62493542  0.92895555  0.87499568     0.79700
C475        C  0.62495708  0.87500281  0.82104398     0.79600
C476        C  0.62494317  0.87500358  0.92894926     0.79600
O477        O  0.60182598  0.08467055  0.87495301    -0.69500
O478        O  0.60184655  0.16534296  0.87502881    -0.69800
O479        O  0.60184634  0.12504370  0.83465461    -0.69600
O480        O  0.60182623  0.12496896  0.91532683    -0.69600
O481        O  0.64802296  0.12502911  0.91533696    -0.69600
O482        O  0.64804305  0.12496661  0.83466543    -0.69600
O483        O  0.64804327  0.16533428  0.87497053    -0.69600
O484        O  0.64802269  0.08466255  0.87503209    -0.69700
V485        V  0.60273431  0.12500656  0.87499091     1.35200
V486        V  0.64713481  0.12499845  0.87500096     1.35200
C487        C  0.62492110  0.07104972  0.87499166     0.79700
C488        C  0.62494846  0.17895554  0.87500189     0.79700
C489        C  0.62494824  0.12500463  0.82104321     0.79600
C490        C  0.62492135  0.12499738  0.92894875     0.79600
O491        O  0.60184669  0.12496905  0.16533738    -0.69500
O492        O  0.60183074  0.12503339  0.08466527    -0.69800
O493        O  0.60183544  0.08466578  0.12496922    -0.69600
O494        O  0.60184228  0.16533777  0.12503315    -0.69600
O495        O  0.64803898  0.16533658  0.12495437    -0.69600
O496        O  0.64803217  0.08466505  0.12502763    -0.69600
O497        O  0.64802743  0.12496407  0.08465503    -0.69600
O498        O  0.64804339  0.12503692  0.16532700    -0.69700
V499        V  0.60273691  0.12500165  0.12500107     1.35200
V500        V  0.64713739  0.12500085  0.12499125     1.35200
C501        C  0.62494781  0.12500199  0.17894908     0.79700
C502        C  0.62492635  0.12499741  0.07104327     0.79700
C503        C  0.62493266  0.07104864  0.12499954     0.79600
C504        C  0.62494197  0.17895399  0.12499229     0.79600
O505        O  0.08467067  0.60181896  0.12503630    -0.69500
O506        O  0.16534257  0.60184109  0.12496350    -0.69800
O507        O  0.12504097  0.60183685  0.16533650    -0.69600
O508        O  0.12497090  0.60182315  0.08466460    -0.69600
O509        O  0.12503017  0.64801992  0.08465695    -0.69600
O510        O  0.12496284  0.64803355  0.16532873    -0.69600
O511        O  0.16533309  0.64803781  0.12502466    -0.69600
O512        O  0.08466136  0.64801572  0.12496005    -0.69700
V513        V  0.12500629  0.60272814  0.12500025     1.35200
V514        V  0.12499724  0.64712866  0.12499294     1.35200
C515        C  0.07104932  0.62491366  0.12499810     0.79700
C516        C  0.17895475  0.62494320  0.12499168     0.79700
C517        C  0.12500009  0.62493758  0.17894950     0.79600
C518        C  0.12499977  0.62491919  0.07104403     0.79600
O519        O  0.16533838  0.64804823  0.87504143    -0.69500
O520        O  0.08466657  0.64801911  0.87497065    -0.69800
O521        O  0.12496606  0.64802119  0.91534127    -0.69600
O522        O  0.12503772  0.64804666  0.83466981    -0.69600
O523        O  0.12498247  0.60184994  0.83465475    -0.69600
O524        O  0.12504816  0.60182447  0.91532693    -0.69600
O525        O  0.08467975  0.60182236  0.87502456    -0.69600
O526        O  0.16535148  0.60185154  0.87495810    -0.69700
V527        V  0.12500260  0.64713569  0.87500537     1.35200
V528        V  0.12501540  0.60273520  0.87499121     1.35200
C529        C  0.17896176  0.62495464  0.87500187     0.79700
C530        C  0.07105639  0.62491590  0.87499761     0.79700
C531        C  0.12500611  0.62491873  0.92895083     0.79600
C532        C  0.12500882  0.62495272  0.82104538     0.79600
O533        O  0.91535673  0.64802949  0.87504006    -0.69500
O534        O  0.83468475  0.64806147  0.87497642    -0.69800
O535        O  0.87498835  0.64803691  0.91534405    -0.69600
O536        O  0.87505379  0.64805439  0.83467226    -0.69600
O537        O  0.87496387  0.60185769  0.83466200    -0.69600
O538        O  0.87503547  0.60184015  0.91533388    -0.69600
O539        O  0.83466350  0.60186474  0.87503480    -0.69600
O540        O  0.91533523  0.60183277  0.87496129    -0.69700
V541        V  0.87502041  0.64714750  0.87500798     1.35200
V542        V  0.87499983  0.60274699  0.87499817     1.35200
C543        C  0.92896275  0.62492570  0.87499997     0.79700
C544        C  0.82105725  0.62496839  0.87500664     0.79700
C545        C  0.87501277  0.62493560  0.92895575     0.79600
C546        C  0.87500916  0.62495900  0.82105028     0.79600
O547        O  0.87502969  0.60185299  0.16534323    -0.69500
O548        O  0.87495729  0.60183450  0.08467119    -0.69800
O549        O  0.91532886  0.60182685  0.12496992    -0.69600
O550        O  0.83465697  0.60186057  0.12504370    -0.69600
O551        O  0.83467939  0.64805726  0.12496485    -0.69600
O552        O  0.91535097  0.64802362  0.12502827    -0.69600
O553        O  0.87504823  0.64803120  0.08466118    -0.69600
O554        O  0.87498343  0.64804973  0.16533274    -0.69700
V555        V  0.87499345  0.60274183  0.12500697     1.35200
V556        V  0.87501492  0.64714232  0.12499709     1.35200
C557        C  0.87500827  0.62495456  0.17895482     0.79700
C558        C  0.87500327  0.62492986  0.07104942     0.79700
C559        C  0.92895660  0.62491968  0.12499788     0.79600
C560        C  0.82105130  0.62496459  0.12500352     0.79600
O561        O  0.37503447  0.41533556  0.14803022    -0.69500
O562        O  0.37496831  0.33466375  0.14805437    -0.69800
O563        O  0.41533682  0.37496951  0.14803208    -0.69600
O564        O  0.33466500  0.37503069  0.14805261    -0.69600
O565        O  0.33465428  0.37494788  0.10185593    -0.69600
O566        O  0.41532632  0.37502406  0.10183533    -0.69600
O567        O  0.37502628  0.33464964  0.10185765    -0.69600
O568        O  0.37495521  0.41532158  0.10183352    -0.69700
V569        V  0.37500079  0.37499946  0.14714423     1.35200
V570        V  0.37499056  0.37498592  0.10274374     1.35200
C571        C  0.37499525  0.42894537  0.12492782     0.79700
C572        C  0.37499910  0.32103983  0.12496010     0.79700
C573        C  0.42894837  0.37499854  0.12493032     0.79600
C574        C  0.32104275  0.37498940  0.12495775     0.79600
O575        O  0.33467038  0.62501476  0.14804630    -0.69500
O576        O  0.41534238  0.62495403  0.14803291    -0.69800
O577        O  0.37504005  0.66532065  0.14805252    -0.69600
O578        O  0.37497321  0.58464893  0.14802676    -0.69600
O579        O  0.37503526  0.58466312  0.10183003    -0.69600
O580        O  0.37496485  0.66533515  0.10185582    -0.69600
O581        O  0.41533587  0.62503717  0.10183624    -0.69600
O582        O  0.33466357  0.62496055  0.10184959    -0.69700
V583        V  0.37500627  0.62498499  0.14714149     1.35200
V584        V  0.37499992  0.62499885  0.10274103     1.35200
C585        C  0.32105002  0.62498515  0.12495030     0.79700
C586        C  0.42895602  0.62499641  0.12493235     0.79700
C587        C  0.37500337  0.67894475  0.12495853     0.79600
C588        C  0.37500465  0.57103921  0.12492416     0.79600
O589        O  0.58466271  0.62502694  0.14803236    -0.69500
O590        O  0.66533429  0.62496487  0.14804796    -0.69800
O591        O  0.62503161  0.66533231  0.14804707    -0.69600
O592        O  0.62496493  0.58465999  0.14803244    -0.69600
O593        O  0.62504354  0.58466832  0.10183575    -0.69600
O594        O  0.62497291  0.66534033  0.10185039    -0.69600
O595        O  0.66534496  0.62504151  0.10185129    -0.69600
O596        O  0.58467238  0.62496650  0.10183566    -0.69700
V597        V  0.62499872  0.62499624  0.14714185     1.35200
V598        V  0.62500839  0.62500405  0.10274140     1.35200
C599        C  0.57105067  0.62499594  0.12493153     0.79700
C600        C  0.67895654  0.62500319  0.12495257     0.79700
C601        C  0.62500035  0.67895331  0.12495114     0.79600
C602        C  0.62500434  0.57104732  0.12493151     0.79600
O603        O  0.62502846  0.41534275  0.14803003    -0.69500
O604        O  0.62494891  0.33467117  0.14805217    -0.69800
O605        O  0.66532510  0.37497035  0.14805003    -0.69600
O606        O  0.58465326  0.37504403  0.14803189    -0.69600
O607        O  0.58466458  0.37496246  0.10183519    -0.69600
O608        O  0.66533640  0.37502619  0.10185330    -0.69600
O609        O  0.62502897  0.33465819  0.10185546    -0.69600
O610        O  0.62497111  0.41533018  0.10183330    -0.69700
V611        V  0.62498932  0.37500675  0.14714294     1.35200
V612        V  0.62500023  0.37499442  0.10274246     1.35200
C613        C  0.62500083  0.42895327  0.12492806     0.79700
C614        C  0.62498567  0.32104788  0.12495760     0.79700
C615        C  0.67894760  0.37499811  0.12495467     0.79600
C616        C  0.57104213  0.37500430  0.12493050     0.79600
O617        O  0.33466745  0.62502939  0.89814937    -0.69500
O618        O  0.41533956  0.62496992  0.89816508    -0.69800
O619        O  0.37503571  0.66533592  0.89814164    -0.69600
O620        O  0.37497126  0.58466388  0.89817274    -0.69600
O621        O  0.37504989  0.58464626  0.85197603    -0.69600
O622        O  0.37497714  0.66531797  0.85194490    -0.69600
O623        O  0.41534982  0.62502063  0.85196836    -0.69600
O624        O  0.33467780  0.62494290  0.85195266    -0.69700
V625        V  0.37500372  0.62499957  0.89725908     1.35200
V626        V  0.37501347  0.62498239  0.85285857     1.35200
C627        C  0.32105579  0.62498425  0.87504825     0.79700
C628        C  0.42896161  0.62499566  0.87506947     0.79700
C629        C  0.37500541  0.67894378  0.87503804     0.79600
C630        C  0.37501122  0.57103825  0.87507949     0.79600
O631        O  0.58468070  0.62504022  0.89816883    -0.69500
O632        O  0.66535312  0.62497801  0.89814131    -0.69800
O633        O  0.62505031  0.66534560  0.89814274    -0.69600
O634        O  0.62498339  0.58467346  0.89816754    -0.69600
O635        O  0.62503734  0.58465947  0.85197079    -0.69600
O636        O  0.62496706  0.66533101  0.85194607    -0.69600
O637        O  0.66533840  0.62503231  0.85194459    -0.69600
O638        O  0.58466657  0.62495732  0.85197218    -0.69700
V639        V  0.62501672  0.62500918  0.89725703     1.35200
V640        V  0.62500270  0.62499542  0.85285657     1.35200
C641        C  0.57105671  0.62499733  0.87507491     0.79700
C642        C  0.67896266  0.62500488  0.87503827     0.79700
C643        C  0.62500721  0.67895520  0.87504014     0.79600
C644        C  0.62501056  0.57104970  0.87507318     0.79600
O645        O  0.66532891  0.37504251  0.85195101    -0.69500
O646        O  0.58465706  0.37497456  0.85196666    -0.69800
O647        O  0.62496194  0.41534445  0.85196789    -0.69600
O648        O  0.62502363  0.33467255  0.85194989    -0.69600
O649        O  0.62496281  0.33466228  0.89814660    -0.69600
O650        O  0.62503848  0.41533430  0.89816460    -0.69600
O651        O  0.58466498  0.37503316  0.89816339    -0.69600
O652        O  0.66533706  0.37496387  0.89814769    -0.69700
V653        V  0.62499312  0.37500832  0.85285697     1.35200
V654        V  0.62500076  0.37499860  0.89725744     1.35200
C655        C  0.67894989  0.37500352  0.87504661     0.79700
C656        C  0.57104419  0.37500355  0.87506767     0.79700
C657        C  0.62500141  0.42895617  0.87506933     0.79600
C658        C  0.62499099  0.32105051  0.87504512     0.79600
O659        O  0.37502761  0.41531915  0.89816989    -0.69500
O660        O  0.37495493  0.33464710  0.89814101    -0.69800
O661        O  0.41532689  0.37494938  0.89816606    -0.69600
O662        O  0.33465459  0.37501765  0.89814423    -0.69600
O663        O  0.33466856  0.37496513  0.85194750    -0.69600
O664        O  0.41533996  0.37503427  0.85196936    -0.69600
O665        O  0.37503710  0.33466314  0.85194435    -0.69600
O666        O  0.37497238  0.41533533  0.85197317    -0.69700
V667        V  0.37499106  0.37498349  0.89725720     1.35200
V668        V  0.37500404  0.37499903  0.85285673     1.35200
C669        C  0.37500126  0.42894408  0.87507640     0.79700
C670        C  0.37499738  0.32103816  0.87503791     0.79700
C671        C  0.42895023  0.37499224  0.87507119     0.79600
C672        C  0.32104472  0.37499273  0.87504197     0.79600
C673        C  0.54058074  0.37500187  0.87507351    -0.16300
C674        C  0.51498441  0.37499923  0.87507733     0.07800
C675        C  0.48500997  0.37499594  0.87507963     0.09600
C676        C  0.45941365  0.37499369  0.87507829    -0.17100
C677        C  0.62501054  0.54058638  0.87508146    -0.16300
C678        C  0.62500936  0.51499014  0.87508340     0.07800
C679        C  0.62500680  0.48501580  0.87508089     0.09600
C680        C  0.62500431  0.45941954  0.87507624    -0.17100
C681        C  0.37500464  0.45940760  0.87508702    -0.16300
C682        C  0.37500790  0.48500394  0.87509255     0.07800
C683        C  0.37501093  0.51497844  0.87509401     0.09600
C684        C  0.37501194  0.54057477  0.87509025    -0.17100
C685        C  0.45942534  0.62499513  0.87507578    -0.16300
C686        C  0.48502180  0.62499366  0.87508097     0.07800
C687        C  0.51499651  0.62499303  0.87508489     0.09600
C688        C  0.54059298  0.62499428  0.87508382    -0.17100
C689        C  0.62500423  0.54058383  0.12492559    -0.16300
C690        C  0.62500376  0.51498750  0.12492124     0.07800
C691        C  0.62500317  0.48501303  0.12491886     0.09600
C692        C  0.62500251  0.45941672  0.12492060    -0.17100
C693        C  0.45941965  0.62499741  0.12492754    -0.16300
C694        C  0.48501606  0.62499695  0.12492521     0.07800
C695        C  0.51499067  0.62499571  0.12492473     0.09600
C696        C  0.54058707  0.62499510  0.12492642    -0.17100
C697        C  0.54057874  0.37500634  0.12492393    -0.16300
C698        C  0.51498246  0.37500677  0.12492076     0.07800
C699        C  0.48500806  0.37500528  0.12492033     0.09600
C700        C  0.45941177  0.37500254  0.12492312    -0.17100
C701        C  0.37500485  0.54057579  0.12491530    -0.16300
C702        C  0.37500338  0.51497948  0.12491266     0.07800
C703        C  0.37500019  0.48500507  0.12491435     0.09600
C704        C  0.37499725  0.45940877  0.12491904    -0.17100
C705        C  0.79058769  0.62497725  0.12499794    -0.16300
C706        C  0.76499127  0.62498674  0.12498721     0.07800
C707        C  0.73501664  0.62499577  0.12497169     0.09600
C708        C  0.70942021  0.62500106  0.12496014    -0.17100
C709        C  0.79059368  0.62498000  0.87500956    -0.16300
C710        C  0.76499727  0.62498828  0.87501360     0.07800
C711        C  0.73502269  0.62499662  0.87502039     0.09600
C712        C  0.70942626  0.62500210  0.87502786    -0.17100
C713        C  0.87500593  0.62492374  0.04058606    -0.16300
C714        C  0.87500951  0.62492268  0.01498980     0.07800
C715        C  0.87501297  0.62492509  0.98501541     0.09600
C716        C  0.87501396  0.62492917  0.95941914    -0.17100
C717        C  0.20942521  0.62496486  0.87500949    -0.16300
C718        C  0.23502154  0.62497082  0.87501965     0.07800
C719        C  0.26499599  0.62497596  0.87503243     0.09600
C720        C  0.29059232  0.62497984  0.87504151    -0.17100
C721        C  0.04059301  0.62490576  0.87499779    -0.16300
C722        C  0.01499676  0.62490312  0.87499803     0.07800
C723        C  0.98502237  0.62490651  0.87499827     0.09600
C724        C  0.95942612  0.62491372  0.87499872    -0.17100
C725        C  0.29058624  0.62497794  0.12495602    -0.16300
C726        C  0.26498973  0.62496986  0.12496370     0.07800
C727        C  0.23501498  0.62495984  0.12497474     0.09600
C728        C  0.20941849  0.62495174  0.12498394    -0.17100
C729        C  0.04058617  0.62490574  0.12499725    -0.16300
C730        C  0.01499004  0.62490242  0.12499593     0.07800
C731        C  0.98501588  0.62490292  0.12499497     0.09600
C732        C  0.95941975  0.62490786  0.12499558    -0.17100
C733        C  0.12500336  0.62491032  0.95941408    -0.16300
C734        C  0.12500083  0.62490835  0.98501029     0.07800
C735        C  0.12499873  0.62491032  0.01498455     0.09600
C736        C  0.12499851  0.62491392  0.04058077    -0.17100
C737        C  0.62497611  0.29058446  0.12496617    -0.16300
C738        C  0.62496547  0.26498817  0.12497363     0.07800
C739        C  0.62495324  0.23501374  0.12498188     0.09600
C740        C  0.62494565  0.20941743  0.12498771    -0.17100
C741        C  0.62495671  0.20941925  0.87500888    -0.16300
C742        C  0.62496525  0.23501570  0.87501762     0.07800
C743        C  0.62497590  0.26499038  0.87502904     0.09600
C744        C  0.62498417  0.29058683  0.87503773    -0.17100
C745        C  0.62491471  0.12499388  0.95941230    -0.16300
C746        C  0.62491340  0.12499212  0.98500869     0.07800
C747        C  0.62491597  0.12499230  0.01498326     0.09600
C748        C  0.62492024  0.12499426  0.04057966    -0.17100
C749        C  0.62497374  0.79058629  0.87500235    -0.16300
C750        C  0.62498279  0.76498987  0.87500956     0.07800
C751        C  0.62499382  0.73501525  0.87502059     0.09600
C752        C  0.62500170  0.70941883  0.87503027    -0.17100
C753        C  0.62492699  0.95941905  0.87499424    -0.16300
C754        C  0.62492055  0.98501540  0.87499255     0.07800
C755        C  0.62491524  0.01498989  0.87499087     0.09600
C756        C  0.62491473  0.04058623  0.87499044    -0.17100
C757        C  0.62496424  0.79058520  0.12498089    -0.16300
C758        C  0.62497265  0.76498863  0.12497248     0.07800
C759        C  0.62498431  0.73501377  0.12496309     0.09600
C760        C  0.62499346  0.70941720  0.12495671    -0.17100
C761        C  0.62493039  0.95941836  0.12500398    -0.16300
C762        C  0.62492852  0.98501464  0.12500496     0.07800
C763        C  0.62492877  0.01498902  0.12500417     0.09600
C764        C  0.62493016  0.04058528  0.12500226    -0.17100
C765        C  0.62492738  0.87500763  0.04057980    -0.16300
C766        C  0.62492826  0.87500704  0.01498348     0.07800
C767        C  0.62493348  0.87500547  0.98500902     0.09600
C768        C  0.62493868  0.87500430  0.95941270    -0.17100
C769        C  0.20941393  0.37502018  0.87499889    -0.16300
C770        C  0.23501030  0.37501224  0.87500787     0.07800
C771        C  0.26498481  0.37500388  0.87502146     0.09600
C772        C  0.29058118  0.37499754  0.87503258    -0.17100
C773        C  0.29057912  0.37499237  0.12496558    -0.16300
C774        C  0.26498269  0.37499912  0.12497233     0.07800
C775        C  0.23500807  0.37500981  0.12498004     0.09600
C776        C  0.20941165  0.37501991  0.12498597    -0.17100
C777        C  0.12499367  0.37507249  0.04058042    -0.16300
C778        C  0.12499597  0.37507713  0.01498399     0.07800
C779        C  0.12499886  0.37507960  0.98500933     0.09600
C780        C  0.12500040  0.37507776  0.95941290    -0.17100
C781        C  0.70941357  0.37500532  0.87504007    -0.16300
C782        C  0.73501001  0.37500930  0.87503177     0.07800
C783        C  0.76498469  0.37501684  0.87502005     0.09600
C784        C  0.79058114  0.37502601  0.87501047    -0.17100
C785        C  0.95941419  0.37510225  0.87500062    -0.16300
C786        C  0.98501053  0.37510356  0.87500022     0.07800
C787        C  0.01498503  0.37509680  0.87500007     0.09600
C788        C  0.04058136  0.37508713  0.87500021    -0.17100
C789        C  0.70941113  0.37499935  0.12496137    -0.16300
C790        C  0.73500749  0.37500345  0.12496746     0.07800
C791        C  0.76498203  0.37501155  0.12497550     0.09600
C792        C  0.79057839  0.37502104  0.12498303    -0.17100
C793        C  0.95941126  0.37509745  0.12501321    -0.16300
C794        C  0.98500767  0.37510005  0.12501531     0.07800
C795        C  0.01498225  0.37509554  0.12501380     0.09600
C796        C  0.04057865  0.37508742  0.12500961    -0.17100
C797        C  0.87499584  0.37508713  0.95941694    -0.16300
C798        C  0.87499719  0.37508813  0.98501323     0.07800
C799        C  0.87500001  0.37508536  0.01498764     0.09600
C800        C  0.87500197  0.37508090  0.04058392    -0.17100
C801        C  0.37500795  0.70940830  0.12496834    -0.16300
C802        C  0.37501607  0.73500467  0.12497660     0.07800
C803        C  0.37502848  0.76497923  0.12498576     0.09600
C804        C  0.37503944  0.79057561  0.12499237    -0.17100
C805        C  0.37500420  0.70940728  0.87502635    -0.16300
C806        C  0.37500663  0.73500362  0.87501712     0.07800
C807        C  0.37501443  0.76497811  0.87500759     0.09600
C808        C  0.37502468  0.79057445  0.87500160    -0.17100
C809        C  0.37509045  0.87498621  0.95941795    -0.16300
C810        C  0.37509914  0.87498757  0.98501424     0.07800
C811        C  0.37510655  0.87499011  0.01498866     0.09600
C812        C  0.37510650  0.87499210  0.04058494    -0.17100
C813        C  0.37503275  0.20940650  0.87500628    -0.16300
C814        C  0.37502408  0.23500302  0.87501163     0.07800
C815        C  0.37501255  0.26497782  0.87501964     0.09600
C816        C  0.37500352  0.29057434  0.87502739    -0.17100
C817        C  0.37507960  0.04057354  0.87500505    -0.16300
C818        C  0.37508915  0.01497727  0.87500658     0.07800
C819        C  0.37509826  0.98500289  0.87500803     0.09600
C820        C  0.37509940  0.95940664  0.87500818    -0.17100
C821        C  0.37500551  0.29057625  0.12496943    -0.16300
C822        C  0.37501430  0.26497986  0.12497835     0.07800
C823        C  0.37502608  0.23500527  0.12498924     0.09600
C824        C  0.37503566  0.20940888  0.12499720    -0.17100
C825        C  0.37510091  0.95940848  0.12500148    -0.16300
C826        C  0.37510247  0.98500487  0.12499995     0.07800
C827        C  0.37509776  0.01497946  0.12499835     0.09600
C828        C  0.37509041  0.04057587  0.12499813    -0.17100
C829        C  0.37506910  0.12499356  0.04058574    -0.16300
C830        C  0.37506757  0.12499225  0.01498941     0.07800
C831        C  0.37506432  0.12499082  0.98501495     0.09600
C832        C  0.37506172  0.12499028  0.95941862    -0.17100
C833        C  0.87499697  0.95940954  0.62491715    -0.16300
C834        C  0.87499852  0.98500586  0.62491618     0.07800
C835        C  0.87500004  0.01498032  0.62491833     0.09600
C836        C  0.87500063  0.04057664  0.62492193    -0.17100
C837        C  0.04058581  0.12499798  0.62491730    -0.16300
C838        C  0.01498942  0.12499576  0.62491116     0.07800
C839        C  0.98501484  0.12499422  0.62490763     0.09600
C840        C  0.95941846  0.12499406  0.62490973    -0.17100
C841        C  0.95941157  0.87500043  0.62490841    -0.16300
C842        C  0.98500787  0.87500223  0.62490630     0.07800
C843        C  0.01498231  0.87500326  0.62490942     0.09600
C844        C  0.04057862  0.87500322  0.62491568    -0.17100
C845        C  0.12499715  0.04058601  0.62491779    -0.16300
C846        C  0.12499595  0.01498972  0.62491710     0.07800
C847        C  0.12499559  0.98501532  0.62492112     0.09600
C848        C  0.12499621  0.95941902  0.62492658    -0.17100
C849        C  0.62496838  0.87500311  0.20941252    -0.16300
C850        C  0.62497601  0.87500926  0.23500895     0.07800
C851        C  0.62498480  0.87501830  0.26498362     0.09600
C852        C  0.62499089  0.87502634  0.29058007    -0.17100
C853        C  0.62498778  0.87501946  0.70941385    -0.16300
C854        C  0.62497952  0.87501302  0.73501010     0.07800
C855        C  0.62496894  0.87500781  0.76498443     0.09600
C856        C  0.62496172  0.87500472  0.79058066    -0.17100
C857        C  0.79057887  0.87499862  0.62496447    -0.16300
C858        C  0.76498244  0.87500877  0.62497376     0.07800
C859        C  0.73500784  0.87502228  0.62498382     0.09600
C860        C  0.70941141  0.87503191  0.62499051    -0.17100
C861        C  0.62499376  0.87508203  0.54058115    -0.16300
C862        C  0.62499473  0.87508592  0.51498468     0.07800
C863        C  0.62499693  0.87508468  0.48500997     0.09600
C864        C  0.62499894  0.87507950  0.45941350    -0.17100
C865        C  0.29057891  0.87502987  0.62499662    -0.16300
C866        C  0.26498249  0.87502061  0.62499070     0.07800
C867        C  0.23500784  0.87501145  0.62498256     0.09600
C868        C  0.20941142  0.87500635  0.62497486    -0.17100
C869        C  0.37503946  0.87500447  0.79058512    -0.16300
C870        C  0.37502979  0.87501270  0.76498865     0.07800
C871        C  0.37501690  0.87502292  0.73501393     0.09600
C872        C  0.37500668  0.87503136  0.70941745    -0.17100
C873        C  0.45941159  0.87508315  0.62500139    -0.16300
C874        C  0.48500791  0.87508249  0.62500299     0.07800
C875        C  0.51498235  0.87507621  0.62500367     0.09600
C876        C  0.54057866  0.87506944  0.62500284    -0.17100
C877        C  0.37503264  0.87499348  0.20941710    -0.16300
C878        C  0.37502198  0.87499916  0.23501340     0.07800
C879        C  0.37501179  0.87500926  0.26498785     0.09600
C880        C  0.37500560  0.87501958  0.29058415    -0.17100
C881        C  0.45941374  0.87507936  0.37500508    -0.16300
C882        C  0.48501026  0.87508354  0.37500570     0.07800
C883        C  0.51498505  0.87508465  0.37500505     0.09600
C884        C  0.54058156  0.87508157  0.37500335    -0.17100
C885        C  0.37498994  0.87508946  0.45941680    -0.16300
C886        C  0.37498917  0.87509322  0.48501319     0.07800
C887        C  0.37499004  0.87509145  0.51498778     0.09600
C888        C  0.37499186  0.87508589  0.54058418    -0.17100
C889        C  0.87501028  0.37503945  0.79058395    -0.16300
C890        C  0.87502027  0.37502790  0.76498742     0.07800
C891        C  0.87503282  0.37501347  0.73501266     0.09600
C892        C  0.87504256  0.37500313  0.70941612    -0.17100
C893        C  0.87504035  0.29057683  0.62498915    -0.16300
C894        C  0.87502934  0.26498042  0.62497896     0.07800
C895        C  0.87501689  0.23500582  0.62496604     0.09600
C896        C  0.87500899  0.20940941  0.62495686    -0.17100
C897        C  0.87499190  0.37503720  0.20941611    -0.16300
C898        C  0.87500029  0.37502541  0.23501243     0.07800
C899        C  0.87501405  0.37500941  0.26498688     0.09600
C900        C  0.87502651  0.37499747  0.29058320    -0.17100
C901        C  0.87509632  0.37499745  0.45941570    -0.16300
C902        C  0.87510077  0.37499806  0.48501206     0.07800
C903        C  0.87510034  0.37499696  0.51498657     0.09600
C904        C  0.87509587  0.37499524  0.54058292    -0.17100
C905        C  0.87503552  0.70940940  0.62499633    -0.16300
C906        C  0.87502583  0.73500580  0.62498503     0.07800
C907        C  0.87501367  0.76498040  0.62496917     0.09600
C908        C  0.87500458  0.79057680  0.62495734    -0.17100
C909        C  0.87501202  0.62496572  0.79058675    -0.16300
C910        C  0.87501807  0.62497196  0.76499038     0.07800
C911        C  0.87502768  0.62497944  0.73501583     0.09600
C912        C  0.87503630  0.62498501  0.70941944    -0.17100
C913        C  0.87508591  0.54057674  0.62499602    -0.16300
C914        C  0.87509223  0.51498042  0.62499407     0.07800
C915        C  0.87509635  0.48500597  0.62499392     0.09600
C916        C  0.87509531  0.45940964  0.62499552    -0.17100
C917        C  0.87502692  0.62498661  0.29058560    -0.16300
C918        C  0.87502194  0.62497973  0.26498924     0.07800
C919        C  0.87501699  0.62496996  0.23501470     0.09600
C920        C  0.87501271  0.62496202  0.20941835    -0.17100
C921        C  0.87506929  0.54057378  0.37499662    -0.16300
C922        C  0.87507588  0.51497751  0.37499512     0.07800
C923        C  0.87508198  0.48500310  0.37499406     0.09600
C924        C  0.87508293  0.45940684  0.37499415    -0.17100
C925        C  0.87507552  0.62498757  0.45941863    -0.16300
C926        C  0.87508146  0.62498934  0.48501509     0.07800
C927        C  0.87508473  0.62499227  0.51498979     0.09600
C928        C  0.87508334  0.62499429  0.54058625    -0.17100
C929        C  0.37501455  0.12495939  0.70941837    -0.16300
C930        C  0.37502567  0.12496628  0.73501477     0.07800
C931        C  0.37503917  0.12497499  0.76498938     0.09600
C932        C  0.37504749  0.12498168  0.79058579    -0.17100
C933        C  0.20941888  0.12499185  0.62496497    -0.16300
C934        C  0.23501533  0.12498041  0.62497429     0.07800
C935        C  0.26498997  0.12496602  0.62498615     0.09600
C936        C  0.29058641  0.12495647  0.62499490    -0.17100
C937        C  0.37505269  0.12498263  0.20941863    -0.16300
C938        C  0.37504445  0.12497557  0.23501508     0.07800
C939        C  0.37503211  0.12496704  0.26498974     0.09600
C940        C  0.37502224  0.12496104  0.29058618    -0.17100
C941        C  0.37500371  0.12493415  0.45941887    -0.16300
C942        C  0.37500352  0.12492990  0.48501516     0.07800
C943        C  0.37500348  0.12492649  0.51498956     0.09600
C944        C  0.37500332  0.12492663  0.54058584    -0.17100
C945        C  0.70941860  0.12496048  0.62499444    -0.16300
C946        C  0.73501492  0.12496946  0.62498811     0.07800
C947        C  0.76498942  0.12497907  0.62497847     0.09600
C948        C  0.79058575  0.12498543  0.62496932    -0.17100
C949        C  0.62498906  0.12497195  0.70941269    -0.16300
C950        C  0.62497946  0.12498264  0.73500901     0.07800
C951        C  0.62496657  0.12499370  0.76498345     0.09600
C952        C  0.62495667  0.12500085  0.79057977    -0.17100
C953        C  0.54058622  0.12491124  0.62499396    -0.16300
C954        C  0.51498991  0.12491305  0.62499507     0.07800
C955        C  0.48501547  0.12492059  0.62499713     0.09600
C956        C  0.45941917  0.12492761  0.62499887    -0.17100
C957        C  0.62498695  0.12496763  0.29058027    -0.16300
C958        C  0.62497598  0.12497744  0.26498383     0.07800
C959        C  0.62496329  0.12498878  0.23500917     0.09600
C960        C  0.62495448  0.12499692  0.20941273    -0.17100
C961        C  0.54059194  0.12490293  0.37500996    -0.16300
C962        C  0.51499561  0.12490409  0.37501080     0.07800
C963        C  0.48502112  0.12491316  0.37500979     0.09600
C964        C  0.45942478  0.12492292  0.37500809    -0.17100
C965        C  0.62502031  0.12490304  0.45941316    -0.16300
C966        C  0.62502030  0.12489599  0.48500950     0.07800
C967        C  0.62501694  0.12489318  0.51498397     0.09600
C968        C  0.62501258  0.12489698  0.54058030    -0.17100
C969        C  0.12496634  0.62499330  0.70941421    -0.16300
C970        C  0.12497846  0.62498496  0.73501063     0.07800
C971        C  0.12499286  0.62497315  0.76498529     0.09600
C972        C  0.12500276  0.62496298  0.79058172    -0.17100
C973        C  0.12498791  0.79058670  0.62496481    -0.16300
C974        C  0.12498274  0.76499038  0.62497365     0.07800
C975        C  0.12497426  0.73501593  0.62498528     0.09600
C976        C  0.12496559  0.70941960  0.62499354    -0.17100
C977        C  0.12496104  0.62497664  0.29058070    -0.16300
C978        C  0.12497013  0.62496495  0.26498425     0.07800
C979        C  0.12498288  0.62495193  0.23500959     0.09600
C980        C  0.12499295  0.62494339  0.20941315    -0.17100
C981        C  0.12490795  0.62500690  0.54058114    -0.16300
C982        C  0.12490767  0.62500802  0.51498474     0.07800
C983        C  0.12491316  0.62500937  0.48501018     0.09600
C984        C  0.12491996  0.62500982  0.45941381    -0.17100
C985        C  0.12499800  0.20941877  0.62496694    -0.16300
C986        C  0.12499039  0.23501522  0.62497464     0.07800
C987        C  0.12497996  0.26498989  0.62498274     0.09600
C988        C  0.12497152  0.29058633  0.62498825    -0.17100
C989        C  0.12496180  0.37500367  0.70941168    -0.16300
C990        C  0.12496828  0.37500823  0.73500818     0.07800
C991        C  0.12497757  0.37501663  0.76498293     0.09600
C992        C  0.12498555  0.37502512  0.79057942    -0.17100
C993        C  0.12490750  0.54058689  0.62499111    -0.16300
C994        C  0.12490759  0.51499048  0.62499004     0.07800
C995        C  0.12491440  0.48501589  0.62499092     0.09600
C996        C  0.12492272  0.45941948  0.62499298    -0.17100
C997        C  0.12497052  0.37501638  0.29057956    -0.16300
C998        C  0.12497778  0.37502220  0.26498331     0.07800
C999        C  0.12498684  0.37502909  0.23500901     0.09600
C1000       C  0.12499327  0.37503486  0.20941278    -0.17100
C1001       C  0.12493938  0.45941728  0.37501052    -0.16300
C1002       C  0.12493271  0.48501353  0.37501412     0.07800
C1003       C  0.12492533  0.51498783  0.37501499     0.09600
C1004       C  0.12492303  0.54058406  0.37501265    -0.17100
C1005       C  0.12493663  0.37499544  0.45941151    -0.16300
C1006       C  0.12493373  0.37499805  0.48500782     0.07800
C1007       C  0.12493289  0.37500164  0.51498227     0.09600
C1008       C  0.12493452  0.37500364  0.54057858    -0.17100
C1009       C  0.79058235  0.87498923  0.37502502    -0.16300
C1010       C  0.76498597  0.87499710  0.37501409     0.07800
C1011       C  0.73501140  0.87500985  0.37500300     0.09600
C1012       C  0.70941500  0.87502124  0.37499665    -0.17100
C1013       C  0.87500919  0.79057370  0.37504626    -0.16300
C1014       C  0.87501653  0.76497732  0.37503755     0.07800
C1015       C  0.87502556  0.73500276  0.37502481     0.09600
C1016       C  0.87503246  0.70940637  0.37501470    -0.17100
C1017       C  0.87501735  0.20940664  0.37503630    -0.16300
C1018       C  0.87502277  0.23500308  0.37502826     0.07800
C1019       C  0.87503119  0.26497774  0.37501824     0.09600
C1020       C  0.87503911  0.29057417  0.37501061    -0.17100
C1021       C  0.79059190  0.12498987  0.37502840    -0.16300
C1022       C  0.76499553  0.12498666  0.37501692     0.07800
C1023       C  0.73502098  0.12498003  0.37500295     0.09600
C1024       C  0.70942459  0.12497167  0.37499382    -0.17100
C1025       C  0.87499871  0.95940644  0.37507226    -0.16300
C1026       C  0.87500058  0.98500281  0.37507544     0.07800
C1027       C  0.87500245  0.01497733  0.37507727     0.09600
C1028       C  0.87500324  0.04057370  0.37507580    -0.17100
C1029       C  0.12496220  0.70941657  0.37499475    -0.16300
C1030       C  0.12496980  0.73501301  0.37500421     0.07800
C1031       C  0.12497863  0.76498767  0.37501865     0.09600
C1032       C  0.12498515  0.79058411  0.37503035    -0.17100
C1033       C  0.29058061  0.87503022  0.37500062    -0.16300
C1034       C  0.26498430  0.87502163  0.37500575     0.07800
C1035       C  0.23500986  0.87501155  0.37501465     0.09600
C1036       C  0.20941356  0.87500470  0.37502383    -0.17100
C1037       C  0.04058150  0.87500504  0.37509048    -0.16300
C1038       C  0.01498526  0.87500531  0.37509596     0.07800
C1039       C  0.98501092  0.87500364  0.37509690     0.09600
C1040       C  0.95941467  0.87500084  0.37509277    -0.17100
C1041       C  0.29059198  0.12497043  0.37500441    -0.16300
C1042       C  0.26499557  0.12497868  0.37501019     0.07800
C1043       C  0.23502094  0.12498937  0.37501957     0.09600
C1044       C  0.20942452  0.12499766  0.37502886    -0.17100
C1045       C  0.12499557  0.20941674  0.37502500    -0.16300
C1046       C  0.12498605  0.23501326  0.37501219     0.07800
C1047       C  0.12497434  0.26498804  0.37499856     0.09600
C1048       C  0.12496642  0.29058455  0.37499092    -0.17100
C1049       C  0.04059171  0.12498669  0.37509141    -0.16300
C1050       C  0.01499538  0.12498304  0.37509382     0.07800
C1051       C  0.98502090  0.12498196  0.37509053     0.09600
C1052       C  0.95942456  0.12498379  0.37508437    -0.17100
C1053       C  0.12501012  0.04058378  0.37509293    -0.16300
C1054       C  0.12500910  0.01498750  0.37509434     0.07800
C1055       C  0.12500728  0.98501309  0.37508990     0.09600
C1056       C  0.12500546  0.95941679  0.37508331    -0.17100
loop_ 
_geom_bond_atom_site_label_1 
_geom_bond_atom_site_label_2 
_geom_bond_distance 
_geom_bond_site_symmetry_2 
_ccdc_geom_bond_type 
O1            V9   1.900       .  S
O1           C11   1.263       .  A
O2            V9   1.900       .  S
O2           C12   1.263       .  A
O3            V9   1.900       .  S
O3           C13   1.263       .  A
O4            V9   1.900       .  S
O4           C14   1.263       .  A
O5           V10   1.900       .  S
O5           C14   1.263       .  A
O6           V10   1.900       .  S
O6           C13   1.263       .  A
O7           V10   1.900       .  S
O7           C12   1.263       .  A
O8           V10   1.900       .  S
O8           C11   1.263       .  A
V9           V10   2.091       .  T
C11        C1053   1.435       .  S
C12        C1045   1.435       .  S
C13        C1049   1.435       .  S
C14        C1044   1.435       .  S
O15          V23   1.900       .  S
O15          C25   1.263       .  A
O16          V23   1.900       .  S
O16          C26   1.263       .  A
O17          V23   1.900       .  S
O17          C27   1.263       .  A
O18          V23   1.900       .  S
O18          C28   1.263       .  A
O19          V24   1.900       .  S
O19          C28   1.263       .  A
O20          V24   1.900       .  S
O20          C27   1.263       .  A
O21          V24   1.900       .  S
O21          C26   1.263       .  A
O22          V24   1.900       .  S
O22          C25   1.263       .  A
V23          V24   2.091       .  T
C25        C1032   1.435       .  S
C26        C1056   1.435       .  S
C27        C1036   1.435       .  S
C28        C1037   1.435       .  S
O29          V37   1.900       .  S
O29          C39   1.263       .  A
O30          V37   1.900       .  S
O30          C40   1.263       .  A
O31          V37   1.900       .  S
O31          C41   1.263       .  A
O32          V37   1.900       .  S
O32          C42   1.263       .  A
O33          V38   1.900       .  S
O33          C42   1.263       .  A
O34          V38   1.900       .  S
O34          C41   1.263       .  A
O35          V38   1.900       .  S
O35          C40   1.263       .  A
O36          V38   1.900       .  S
O36          C39   1.263       .  A
V37          V38   2.091       .  T
C39        C1052   1.435       .  S
C40        C1021   1.435       .  S
C41        C1017   1.435       .  S
C42        C1028   1.435       .  S
O43          V51   1.900       .  S
O43          C53   1.263       .  A
O44          V51   1.900       .  S
O44          C54   1.263       .  A
O45          V51   1.900       .  S
O45          C55   1.263       .  A
O46          V51   1.900       .  S
O46          C56   1.263       .  A
O47          V52   1.900       .  S
O47          C56   1.263       .  A
O48          V52   1.900       .  S
O48          C55   1.263       .  A
O49          V52   1.900       .  S
O49          C54   1.263       .  A
O50          V52   1.900       .  S
O50          C53   1.263       .  A
V51          V52   2.091       .  T
C53        C1040   1.435       .  S
C54        C1009   1.435       .  S
C55        C1013   1.435       .  S
C56        C1025   1.435       .  S
O57          V65   1.900       .  S
O57          C67   1.263       .  A
O58          V65   1.900       .  S
O58          C68   1.263       .  A
O59          V65   1.900       .  S
O59          C69   1.263       .  A
O60          V65   1.900       .  S
O60          C70   1.263       .  A
O61          V66   1.900       .  S
O61          C70   1.263       .  A
O62          V66   1.900       .  S
O62          C69   1.263       .  A
O63          V66   1.900       .  S
O63          C68   1.263       .  A
O64          V66   1.900       .  S
O64          C67   1.263       .  A
V65          V66   2.091       .  T
C67        C1001   1.435       .  S
C68        C1048   1.435       .  S
C69         C997   1.435       .  S
C70        C1005   1.435       .  S
O71          V79   1.900       .  S
O71          C81   1.263       .  A
O72          V79   1.900       .  S
O72          C82   1.263       .  A
O73          V79   1.900       .  S
O73          C83   1.263       .  A
O74          V79   1.900       .  S
O74          C84   1.263       .  A
O75          V80   1.900       .  S
O75          C84   1.263       .  A
O76          V80   1.900       .  S
O76          C83   1.263       .  A
O77          V80   1.900       .  S
O77          C82   1.263       .  A
O78          V80   1.900       .  S
O78          C81   1.263       .  A
V79          V80   2.091       .  T
C81         C996   1.435       .  S
C82         C988   1.435       .  S
C83        C1008   1.435       .  S
C84         C989   1.435       .  S
O85          V93   1.900       .  S
O85          C95   1.263       .  A
O86          V93   1.900       .  S
O86          C96   1.263       .  A
O87          V93   1.900       .  S
O87          C97   1.263       .  A
O88          V93   1.900       .  S
O88          C98   1.263       .  A
O89          V94   1.900       .  S
O89          C98   1.263       .  A
O90          V94   1.900       .  S
O90          C97   1.263       .  A
O91          V94   1.900       .  S
O91          C96   1.263       .  A
O92          V94   1.900       .  S
O92          C95   1.263       .  A
V93          V94   2.091       .  T
C95         C984   1.435       .  S
C96         C977   1.435       .  S
C97        C1004   1.435       .  S
C98        C1029   1.435       .  S
O99         V107   1.900       .  S
O99         C109   1.263       .  A
O100        V107   1.900       .  S
O100        C110   1.263       .  A
O101        V107   1.900       .  S
O101        C111   1.263       .  A
O102        V107   1.900       .  S
O102        C112   1.263       .  A
O103        V108   1.900       .  S
O103        C112   1.263       .  A
O104        V108   1.900       .  S
O104        C111   1.263       .  A
O105        V108   1.900       .  S
O105        C110   1.263       .  A
O106        V108   1.900       .  S
O106        C109   1.263       .  A
V107        V108   2.091       .  T
C109        C993   1.435       .  S
C110        C976   1.435       .  S
C111        C969   1.435       .  S
C112        C981   1.435       .  S
O113        V121   1.900       .  S
O113        C123   1.263       .  A
O114        V121   1.900       .  S
O114        C124   1.263       .  A
O115        V121   1.900       .  S
O115        C125   1.263       .  A
O116        V121   1.900       .  S
O116        C126   1.263       .  A
O117        V122   1.900       .  S
O117        C126   1.263       .  A
O118        V122   1.900       .  S
O118        C125   1.263       .  A
O119        V122   1.900       .  S
O119        C124   1.263       .  A
O120        V122   1.900       .  S
O120        C123   1.263       .  A
V121        V122   2.091       .  T
C123        C965   1.435       .  S
C124        C957   1.435       .  S
C125        C961   1.435       .  S
C126       C1024   1.435       .  S
O127        V135   1.900       .  S
O127        C137   1.263       .  A
O128        V135   1.900       .  S
O128        C138   1.263       .  A
O129        V135   1.900       .  S
O129        C139   1.263       .  A
O130        V135   1.900       .  S
O130        C140   1.263       .  A
O131        V136   1.900       .  S
O131        C140   1.263       .  A
O132        V136   1.900       .  S
O132        C139   1.263       .  A
O133        V136   1.900       .  S
O133        C138   1.263       .  A
O134        V136   1.900       .  S
O134        C137   1.263       .  A
V135        V136   2.091       .  T
C137        C968   1.435       .  S
C138        C949   1.435       .  S
C139        C945   1.435       .  S
C140        C953   1.435       .  S
O141        V149   1.900       .  S
O141        C151   1.263       .  A
O142        V149   1.900       .  S
O142        C152   1.263       .  A
O143        V149   1.900       .  S
O143        C153   1.263       .  A
O144        V149   1.900       .  S
O144        C154   1.263       .  A
O145        V150   1.900       .  S
O145        C154   1.263       .  A
O146        V150   1.900       .  S
O146        C153   1.263       .  A
O147        V150   1.900       .  S
O147        C152   1.263       .  A
O148        V150   1.900       .  S
O148        C151   1.263       .  A
V149        V150   2.091       .  T
C151       C1041   1.435       .  S
C152        C964   1.435       .  S
C153        C941   1.435       .  S
C154        C940   1.435       .  S
O155        V163   1.900       .  S
O155        C165   1.263       .  A
O156        V163   1.900       .  S
O156        C166   1.263       .  A
O157        V163   1.900       .  S
O157        C167   1.263       .  A
O158        V163   1.900       .  S
O158        C168   1.263       .  A
O159        V164   1.900       .  S
O159        C168   1.263       .  A
O160        V164   1.900       .  S
O160        C167   1.263       .  A
O161        V164   1.900       .  S
O161        C166   1.263       .  A
O162        V164   1.900       .  S
O162        C165   1.263       .  A
V163        V164   2.091       .  T
C165        C936   1.435       .  S
C166        C956   1.435       .  S
C167        C929   1.435       .  S
C168        C944   1.435       .  S
O169        V177   1.900       .  S
O169        C179   1.263       .  A
O170        V177   1.900       .  S
O170        C180   1.263       .  A
O171        V177   1.900       .  S
O171        C181   1.263       .  A
O172        V177   1.900       .  S
O172        C182   1.263       .  A
O173        V178   1.900       .  S
O173        C182   1.263       .  A
O174        V178   1.900       .  S
O174        C181   1.263       .  A
O175        V178   1.900       .  S
O175        C180   1.263       .  A
O176        V178   1.900       .  S
O176        C179   1.263       .  A
V177        V178   2.091       .  T
C179        C925   1.435       .  S
C180        C917   1.435       .  S
C181       C1016   1.435       .  S
C182        C921   1.435       .  S
O183        V191   1.900       .  S
O183        C193   1.263       .  A
O184        V191   1.900       .  S
O184        C194   1.263       .  A
O185        V191   1.900       .  S
O185        C195   1.263       .  A
O186        V191   1.900       .  S
O186        C196   1.263       .  A
O187        V192   1.900       .  S
O187        C196   1.263       .  A
O188        V192   1.900       .  S
O188        C195   1.263       .  A
O189        V192   1.900       .  S
O189        C194   1.263       .  A
O190        V192   1.900       .  S
O190        C193   1.263       .  A
V191        V192   2.091       .  T
C193        C928   1.435       .  S
C194        C912   1.435       .  S
C195        C905   1.435       .  S
C196        C913   1.435       .  S
O197        V205   1.900       .  S
O197        C207   1.263       .  A
O198        V205   1.900       .  S
O198        C208   1.263       .  A
O199        V205   1.900       .  S
O199        C209   1.263       .  A
O200        V205   1.900       .  S
O200        C210   1.263       .  A
O201        V206   1.900       .  S
O201        C210   1.263       .  A
O202        V206   1.900       .  S
O202        C209   1.263       .  A
O203        V206   1.900       .  S
O203        C208   1.263       .  A
O204        V206   1.900       .  S
O204        C207   1.263       .  A
V205        V206   2.091       .  T
C207        C924   1.435       .  S
C208       C1020   1.435       .  S
C209        C900   1.435       .  S
C210        C901   1.435       .  S
O211        V219   1.900       .  S
O211        C221   1.263       .  A
O212        V219   1.900       .  S
O212        C222   1.263       .  A
O213        V219   1.900       .  S
O213        C223   1.263       .  A
O214        V219   1.900       .  S
O214        C224   1.263       .  A
O215        V220   1.900       .  S
O215        C224   1.263       .  A
O216        V220   1.900       .  S
O216        C223   1.263       .  A
O217        V220   1.900       .  S
O217        C222   1.263       .  A
O218        V220   1.900       .  S
O218        C221   1.263       .  A
V219        V220   2.091       .  T
C221        C916   1.435       .  S
C222        C893   1.435       .  S
C223        C904   1.435       .  S
C224        C892   1.435       .  S
O225        V233   1.900       .  S
O225        C235   1.263       .  A
O226        V233   1.900       .  S
O226        C236   1.263       .  A
O227        V233   1.900       .  S
O227        C237   1.263       .  A
O228        V233   1.900       .  S
O228        C238   1.263       .  A
O229        V234   1.900       .  S
O229        C238   1.263       .  A
O230        V234   1.900       .  S
O230        C237   1.263       .  A
O231        V234   1.900       .  S
O231        C236   1.263       .  A
O232        V234   1.900       .  S
O232        C235   1.263       .  A
V233        V234   2.091       .  T
C235       C1033   1.435       .  S
C236        C881   1.435       .  S
C237        C885   1.435       .  S
C238        C880   1.435       .  S
O239        V247   1.900       .  S
O239        C249   1.263       .  A
O240        V247   1.900       .  S
O240        C250   1.263       .  A
O241        V247   1.900       .  S
O241        C251   1.263       .  A
O242        V247   1.900       .  S
O242        C252   1.263       .  A
O243        V248   1.900       .  S
O243        C252   1.263       .  A
O244        V248   1.900       .  S
O244        C251   1.263       .  A
O245        V248   1.900       .  S
O245        C250   1.263       .  A
O246        V248   1.900       .  S
O246        C249   1.263       .  A
V247        V248   2.091       .  T
C249        C865   1.435       .  S
C250        C873   1.435       .  S
C251        C872   1.435       .  S
C252        C888   1.435       .  S
O253        V261   1.900       .  S
O253        C263   1.263       .  A
O254        V261   1.900       .  S
O254        C264   1.263       .  A
O255        V261   1.900       .  S
O255        C265   1.263       .  A
O256        V261   1.900       .  S
O256        C266   1.263       .  A
O257        V262   1.900       .  S
O257        C266   1.263       .  A
O258        V262   1.900       .  S
O258        C265   1.263       .  A
O259        V262   1.900       .  S
O259        C264   1.263       .  A
O260        V262   1.900       .  S
O260        C263   1.263       .  A
V261        V262   2.091       .  T
C263        C876   1.435       .  S
C264        C860   1.435       .  S
C265        C853   1.435       .  S
C266        C861   1.435       .  S
O267        V275   1.900       .  S
O267        C277   1.263       .  A
O268        V275   1.900       .  S
O268        C278   1.263       .  A
O269        V275   1.900       .  S
O269        C279   1.263       .  A
O270        V275   1.900       .  S
O270        C280   1.263       .  A
O271        V276   1.900       .  S
O271        C280   1.263       .  A
O272        V276   1.900       .  S
O272        C279   1.263       .  A
O273        V276   1.900       .  S
O273        C278   1.263       .  A
O274        V276   1.900       .  S
O274        C277   1.263       .  A
V275        V276   2.091       .  T
C277        C864   1.435       .  S
C278        C852   1.435       .  S
C279        C884   1.435       .  S
C280       C1012   1.435       .  S
O281        V289   1.900       .  S
O281        C291   1.263       .  A
O282        V289   1.900       .  S
O282        C292   1.263       .  A
O283        V289   1.900       .  S
O283        C293   1.263       .  A
O284        V289   1.900       .  S
O284        C294   1.263       .  A
O285        V290   1.900       .  S
O285        C294   1.263       .  A
O286        V290   1.900       .  S
O286        C293   1.263       .  A
O287        V290   1.900       .  S
O287        C292   1.263       .  A
O288        V290   1.900       .  S
O288        C291   1.263       .  A
V289        V290   2.091       .  T
C291        C973   1.435       .  S
C292        C848   1.435       .  S
C293        C868   1.435       .  S
C294        C844   1.435       .  S
O295        V303   1.900       .  S
O295        C305   1.263       .  A
O296        V303   1.900       .  S
O296        C306   1.263       .  A
O297        V303   1.900       .  S
O297        C307   1.263       .  A
O298        V303   1.900       .  S
O298        C308   1.263       .  A
O299        V304   1.900       .  S
O299        C308   1.263       .  A
O300        V304   1.900       .  S
O300        C307   1.263       .  A
O301        V304   1.900       .  S
O301        C306   1.263       .  A
O302        V304   1.900       .  S
O302        C305   1.263       .  A
V303        V304   2.091       .  T
C305        C933   1.435       .  S
C306        C837   1.435       .  S
C307        C985   1.435       .  S
C308        C845   1.435       .  S
O309        V317   1.900       .  S
O309        C319   1.263       .  A
O310        V317   1.900       .  S
O310        C320   1.263       .  A
O311        V317   1.900       .  S
O311        C321   1.263       .  A
O312        V317   1.900       .  S
O312        C322   1.263       .  A
O313        V318   1.900       .  S
O313        C322   1.263       .  A
O314        V318   1.900       .  S
O314        C321   1.263       .  A
O315        V318   1.900       .  S
O315        C320   1.263       .  A
O316        V318   1.900       .  S
O316        C319   1.263       .  A
V317        V318   2.091       .  T
C319        C840   1.435       .  S
C320        C948   1.435       .  S
C321        C896   1.435       .  S
C322        C836   1.435       .  S
O323        V331   1.900       .  S
O323        C333   1.263       .  A
O324        V331   1.900       .  S
O324        C334   1.263       .  A
O325        V331   1.900       .  S
O325        C335   1.263       .  A
O326        V331   1.900       .  S
O326        C336   1.263       .  A
O327        V332   1.900       .  S
O327        C336   1.263       .  A
O328        V332   1.900       .  S
O328        C335   1.263       .  A
O329        V332   1.900       .  S
O329        C334   1.263       .  A
O330        V332   1.900       .  S
O330        C333   1.263       .  A
V331        V332   2.091       .  T
C333        C833   1.435       .  S
C334        C908   1.435       .  S
C335        C857   1.435       .  S
C336        C841   1.435       .  S
O337        V345   1.900       .  S
O337        C347   1.263       .  A
O338        V345   1.900       .  S
O338        C348   1.263       .  A
O339        V345   1.900       .  S
O339        C349   1.263       .  A
O340        V345   1.900       .  S
O340        C350   1.263       .  A
O341        V346   1.900       .  S
O341        C350   1.263       .  A
O342        V346   1.900       .  S
O342        C349   1.263       .  A
O343        V346   1.900       .  S
O343        C348   1.263       .  A
O344        V346   1.900       .  S
O344        C347   1.263       .  A
V345        V346   2.091       .  T
C347        C824   1.435       .  S
C348        C828   1.435       .  S
C349        C829   1.435       .  S
C350        C937   1.435       .  S
O351        V359   1.900       .  S
O351        C361   1.263       .  A
O352        V359   1.900       .  S
O352        C362   1.263       .  A
O353        V359   1.900       .  S
O353        C363   1.263       .  A
O354        V359   1.900       .  S
O354        C364   1.263       .  A
O355        V360   1.900       .  S
O355        C364   1.263       .  A
O356        V360   1.900       .  S
O356        C363   1.263       .  A
O357        V360   1.900       .  S
O357        C362   1.263       .  A
O358        V360   1.900       .  S
O358        C361   1.263       .  A
V359        V360   2.091       .  T
C361        C817   1.435       .  S
C362        C813   1.435       .  S
C363        C932   1.435       .  S
C364        C832   1.435       .  S
O365        V373   1.900       .  S
O365        C375   1.263       .  A
O366        V373   1.900       .  S
O366        C376   1.263       .  A
O367        V373   1.900       .  S
O367        C377   1.263       .  A
O368        V373   1.900       .  S
O368        C378   1.263       .  A
O369        V374   1.900       .  S
O369        C378   1.263       .  A
O370        V374   1.900       .  S
O370        C377   1.263       .  A
O371        V374   1.900       .  S
O371        C376   1.263       .  A
O372        V374   1.900       .  S
O372        C375   1.263       .  A
V373        V374   2.091       .  T
C375        C808   1.435       .  S
C376        C820   1.435       .  S
C377        C869   1.435       .  S
C378        C809   1.435       .  S
O379        V387   1.900       .  S
O379        C389   1.263       .  A
O380        V387   1.900       .  S
O380        C390   1.263       .  A
O381        V387   1.900       .  S
O381        C391   1.263       .  A
O382        V387   1.900       .  S
O382        C392   1.263       .  A
O383        V388   1.900       .  S
O383        C392   1.263       .  A
O384        V388   1.900       .  S
O384        C391   1.263       .  A
O385        V388   1.900       .  S
O385        C390   1.263       .  A
O386        V388   1.900       .  S
O386        C389   1.263       .  A
V387        V388   2.091       .  T
C389        C825   1.435       .  S
C390        C804   1.435       .  S
C391        C812   1.435       .  S
C392        C877   1.435       .  S
O393        V401   1.900       .  S
O393        C403   1.263       .  A
O394        V401   1.900       .  S
O394        C404   1.263       .  A
O395        V401   1.900       .  S
O395        C405   1.263       .  A
O396        V401   1.900       .  S
O396        C406   1.263       .  A
O397        V402   1.900       .  S
O397        C406   1.263       .  A
O398        V402   1.900       .  S
O398        C405   1.263       .  A
O399        V402   1.900       .  S
O399        C404   1.263       .  A
O400        V402   1.900       .  S
O400        C403   1.263       .  A
V401        V402   2.091       .  T
C403        C897   1.435       .  S
C404        C800   1.435       .  S
C405        C792   1.435       .  S
C406        C793   1.435       .  S
O407        V415   1.900       .  S
O407        C417   1.263       .  A
O408        V415   1.900       .  S
O408        C418   1.263       .  A
O409        V415   1.900       .  S
O409        C419   1.263       .  A
O410        V415   1.900       .  S
O410        C420   1.263       .  A
O411        V416   1.900       .  S
O411        C420   1.263       .  A
O412        V416   1.900       .  S
O412        C419   1.263       .  A
O413        V416   1.900       .  S
O413        C418   1.263       .  A
O414        V416   1.900       .  S
O414        C417   1.263       .  A
V415        V416   2.091       .  T
C417        C785   1.435       .  S
C418        C784   1.435       .  S
C419        C797   1.435       .  S
C420        C889   1.435       .  S
O421        V429   1.900       .  S
O421        C431   1.263       .  A
O422        V429   1.900       .  S
O422        C432   1.263       .  A
O423        V429   1.900       .  S
O423        C433   1.263       .  A
O424        V429   1.900       .  S
O424        C434   1.263       .  A
O425        V430   1.900       .  S
O425        C434   1.263       .  A
O426        V430   1.900       .  S
O426        C433   1.263       .  A
O427        V430   1.900       .  S
O427        C432   1.263       .  A
O428        V430   1.900       .  S
O428        C431   1.263       .  A
V429        V430   2.091       .  T
C431        C796   1.435       .  S
C432        C776   1.435       .  S
C433       C1000   1.435       .  S
C434        C777   1.435       .  S
O435        V443   1.900       .  S
O435        C445   1.263       .  A
O436        V443   1.900       .  S
O436        C446   1.263       .  A
O437        V443   1.900       .  S
O437        C447   1.263       .  A
O438        V443   1.900       .  S
O438        C448   1.263       .  A
O439        V444   1.900       .  S
O439        C448   1.263       .  A
O440        V444   1.900       .  S
O440        C447   1.263       .  A
O441        V444   1.900       .  S
O441        C446   1.263       .  A
O442        V444   1.900       .  S
O442        C445   1.263       .  A
V443        V444   2.091       .  T
C445        C769   1.435       .  S
C446        C788   1.435       .  S
C447        C780   1.435       .  S
C448        C992   1.435       .  S
O449        V457   1.900       .  S
O449        C459   1.263       .  A
O450        V457   1.900       .  S
O450        C460   1.263       .  A
O451        V457   1.900       .  S
O451        C461   1.263       .  A
O452        V457   1.900       .  S
O452        C462   1.263       .  A
O453        V458   1.900       .  S
O453        C462   1.263       .  A
O454        V458   1.900       .  S
O454        C461   1.263       .  A
O455        V458   1.900       .  S
O455        C460   1.263       .  A
O456        V458   1.900       .  S
O456        C459   1.263       .  A
V457        V458   2.091       .  T
C459        C849   1.435       .  S
C460        C765   1.435       .  S
C461        C761   1.435       .  S
C462        C757   1.435       .  S
O463        V471   1.900       .  S
O463        C473   1.263       .  A
O464        V471   1.900       .  S
O464        C474   1.263       .  A
O465        V471   1.900       .  S
O465        C475   1.263       .  A
O466        V471   1.900       .  S
O466        C476   1.263       .  A
O467        V472   1.900       .  S
O467        C476   1.263       .  A
O468        V472   1.900       .  S
O468        C475   1.263       .  A
O469        V472   1.900       .  S
O469        C474   1.263       .  A
O470        V472   1.900       .  S
O470        C473   1.263       .  A
V471        V472   2.091       .  T
C473        C749   1.435       .  S
C474        C753   1.435       .  S
C475        C856   1.435       .  S
C476        C768   1.435       .  S
O477        V485   1.900       .  S
O477        C487   1.263       .  A
O478        V485   1.900       .  S
O478        C488   1.263       .  A
O479        V485   1.900       .  S
O479        C489   1.263       .  A
O480        V485   1.900       .  S
O480        C490   1.263       .  A
O481        V486   1.900       .  S
O481        C490   1.263       .  A
O482        V486   1.900       .  S
O482        C489   1.263       .  A
O483        V486   1.900       .  S
O483        C488   1.263       .  A
O484        V486   1.900       .  S
O484        C487   1.263       .  A
V485        V486   2.091       .  T
C487        C756   1.435       .  S
C488        C741   1.435       .  S
C489        C952   1.435       .  S
C490        C745   1.435       .  S
O491        V499   1.900       .  S
O491        C501   1.263       .  A
O492        V499   1.900       .  S
O492        C502   1.263       .  A
O493        V499   1.900       .  S
O493        C503   1.263       .  A
O494        V499   1.900       .  S
O494        C504   1.263       .  A
O495        V500   1.900       .  S
O495        C504   1.263       .  A
O496        V500   1.900       .  S
O496        C503   1.263       .  A
O497        V500   1.900       .  S
O497        C502   1.263       .  A
O498        V500   1.900       .  S
O498        C501   1.263       .  A
V499        V500   2.091       .  T
C501        C960   1.435       .  S
C502        C748   1.435       .  S
C503        C764   1.435       .  S
C504        C740   1.435       .  S
O505        V513   1.900       .  S
O505        C515   1.263       .  A
O506        V513   1.900       .  S
O506        C516   1.263       .  A
O507        V513   1.900       .  S
O507        C517   1.263       .  A
O508        V513   1.900       .  S
O508        C518   1.263       .  A
O509        V514   1.900       .  S
O509        C518   1.263       .  A
O510        V514   1.900       .  S
O510        C517   1.263       .  A
O511        V514   1.900       .  S
O511        C516   1.263       .  A
O512        V514   1.900       .  S
O512        C515   1.263       .  A
V513        V514   2.091       .  T
C515        C729   1.435       .  S
C516        C728   1.435       .  S
C517        C980   1.435       .  S
C518        C736   1.435       .  S
O519        V527   1.900       .  S
O519        C529   1.263       .  A
O520        V527   1.900       .  S
O520        C530   1.263       .  A
O521        V527   1.900       .  S
O521        C531   1.263       .  A
O522        V527   1.900       .  S
O522        C532   1.263       .  A
O523        V528   1.900       .  S
O523        C532   1.263       .  A
O524        V528   1.900       .  S
O524        C531   1.263       .  A
O525        V528   1.900       .  S
O525        C530   1.263       .  A
O526        V528   1.900       .  S
O526        C529   1.263       .  A
V527        V528   2.091       .  T
C529        C717   1.435       .  S
C530        C721   1.435       .  S
C531        C733   1.435       .  S
C532        C972   1.435       .  S
O533        V541   1.900       .  S
O533        C543   1.263       .  A
O534        V541   1.900       .  S
O534        C544   1.263       .  A
O535        V541   1.900       .  S
O535        C545   1.263       .  A
O536        V541   1.900       .  S
O536        C546   1.263       .  A
O537        V542   1.900       .  S
O537        C546   1.263       .  A
O538        V542   1.900       .  S
O538        C545   1.263       .  A
O539        V542   1.900       .  S
O539        C544   1.263       .  A
O540        V542   1.900       .  S
O540        C543   1.263       .  A
V541        V542   2.091       .  T
C543        C724   1.435       .  S
C544        C709   1.435       .  S
C545        C716   1.435       .  S
C546        C909   1.435       .  S
O547        V555   1.900       .  S
O547        C557   1.263       .  A
O548        V555   1.900       .  S
O548        C558   1.263       .  A
O549        V555   1.900       .  S
O549        C559   1.263       .  A
O550        V555   1.900       .  S
O550        C560   1.263       .  A
O551        V556   1.900       .  S
O551        C560   1.263       .  A
O552        V556   1.900       .  S
O552        C559   1.263       .  A
O553        V556   1.900       .  S
O553        C558   1.263       .  A
O554        V556   1.900       .  S
O554        C557   1.263       .  A
V555        V556   2.091       .  T
C557        C920   1.435       .  S
C558        C713   1.435       .  S
C559        C732   1.435       .  S
C560        C705   1.435       .  S
O561        V569   1.900       .  S
O561        C571   1.263       .  A
O562        V569   1.900       .  S
O562        C572   1.263       .  A
O563        V569   1.900       .  S
O563        C573   1.263       .  A
O564        V569   1.900       .  S
O564        C574   1.263       .  A
O565        V570   1.900       .  S
O565        C574   1.263       .  A
O566        V570   1.900       .  S
O566        C573   1.263       .  A
O567        V570   1.900       .  S
O567        C572   1.263       .  A
O568        V570   1.900       .  S
O568        C571   1.263       .  A
V569        V570   2.091       .  T
C571        C704   1.435       .  S
C572        C821   1.435       .  S
C573        C700   1.435       .  S
C574        C773   1.435       .  S
O575        V583   1.900       .  S
O575        C585   1.263       .  A
O576        V583   1.900       .  S
O576        C586   1.263       .  A
O577        V583   1.900       .  S
O577        C587   1.263       .  A
O578        V583   1.900       .  S
O578        C588   1.263       .  A
O579        V584   1.900       .  S
O579        C588   1.263       .  A
O580        V584   1.900       .  S
O580        C587   1.263       .  A
O581        V584   1.900       .  S
O581        C586   1.263       .  A
O582        V584   1.900       .  S
O582        C585   1.263       .  A
V583        V584   2.091       .  T
C585        C725   1.435       .  S
C586        C693   1.435       .  S
C587        C801   1.435       .  S
C588        C701   1.435       .  S
O589        V597   1.900       .  S
O589        C599   1.263       .  A
O590        V597   1.900       .  S
O590        C600   1.263       .  A
O591        V597   1.900       .  S
O591        C601   1.263       .  A
O592        V597   1.900       .  S
O592        C602   1.263       .  A
O593        V598   1.900       .  S
O593        C602   1.263       .  A
O594        V598   1.900       .  S
O594        C601   1.263       .  A
O595        V598   1.900       .  S
O595        C600   1.263       .  A
O596        V598   1.900       .  S
O596        C599   1.263       .  A
V597        V598   2.091       .  T
C599        C696   1.435       .  S
C600        C708   1.435       .  S
C601        C760   1.435       .  S
C602        C689   1.435       .  S
O603        V611   1.900       .  S
O603        C613   1.263       .  A
O604        V611   1.900       .  S
O604        C614   1.263       .  A
O605        V611   1.900       .  S
O605        C615   1.263       .  A
O606        V611   1.900       .  S
O606        C616   1.263       .  A
O607        V612   1.900       .  S
O607        C616   1.263       .  A
O608        V612   1.900       .  S
O608        C615   1.263       .  A
O609        V612   1.900       .  S
O609        C614   1.263       .  A
O610        V612   1.900       .  S
O610        C613   1.263       .  A
V611        V612   2.091       .  T
C613        C692   1.435       .  S
C614        C737   1.435       .  S
C615        C789   1.435       .  S
C616        C697   1.435       .  S
O617        V625   1.900       .  S
O617        C627   1.263       .  A
O618        V625   1.900       .  S
O618        C628   1.263       .  A
O619        V625   1.900       .  S
O619        C629   1.263       .  A
O620        V625   1.900       .  S
O620        C630   1.263       .  A
O621        V626   1.900       .  S
O621        C630   1.263       .  A
O622        V626   1.900       .  S
O622        C629   1.263       .  A
O623        V626   1.900       .  S
O623        C628   1.263       .  A
O624        V626   1.900       .  S
O624        C627   1.263       .  A
V625        V626   2.091       .  T
C627        C720   1.435       .  S
C628        C685   1.435       .  S
C629        C805   1.435       .  S
C630        C684   1.435       .  S
O631        V639   1.900       .  S
O631        C641   1.263       .  A
O632        V639   1.900       .  S
O632        C642   1.263       .  A
O633        V639   1.900       .  S
O633        C643   1.263       .  A
O634        V639   1.900       .  S
O634        C644   1.263       .  A
O635        V640   1.900       .  S
O635        C644   1.263       .  A
O636        V640   1.900       .  S
O636        C643   1.263       .  A
O637        V640   1.900       .  S
O637        C642   1.263       .  A
O638        V640   1.900       .  S
O638        C641   1.263       .  A
V639        V640   2.091       .  T
C641        C688   1.435       .  S
C642        C712   1.435       .  S
C643        C752   1.435       .  S
C644        C677   1.435       .  S
O645        V653   1.900       .  S
O645        C655   1.263       .  A
O646        V653   1.900       .  S
O646        C656   1.263       .  A
O647        V653   1.900       .  S
O647        C657   1.263       .  A
O648        V653   1.900       .  S
O648        C658   1.263       .  A
O649        V654   1.900       .  S
O649        C658   1.263       .  A
O650        V654   1.900       .  S
O650        C657   1.263       .  A
O651        V654   1.900       .  S
O651        C656   1.263       .  A
O652        V654   1.900       .  S
O652        C655   1.263       .  A
V653        V654   2.091       .  T
C655        C781   1.435       .  S
C656        C673   1.435       .  S
C657        C680   1.435       .  S
C658        C744   1.435       .  S
O659        V667   1.900       .  S
O659        C669   1.263       .  A
O660        V667   1.900       .  S
O660        C670   1.263       .  A
O661        V667   1.900       .  S
O661        C671   1.263       .  A
O662        V667   1.900       .  S
O662        C672   1.263       .  A
O663        V668   1.900       .  S
O663        C672   1.263       .  A
O664        V668   1.900       .  S
O664        C671   1.263       .  A
O665        V668   1.900       .  S
O665        C670   1.263       .  A
O666        V668   1.900       .  S
O666        C669   1.263       .  A
V667        V668   2.091       .  T
C669        C681   1.435       .  S
C670        C816   1.435       .  S
C671        C676   1.435       .  S
C672        C772   1.435       .  S
C673        C674   1.205       .  T
C674        C675   1.411       .  S
C675        C676   1.205       .  T
C677        C678   1.205       .  T
C678        C679   1.411       .  S
C679        C680   1.205       .  T
C681        C682   1.205       .  T
C682        C683   1.411       .  S
C683        C684   1.205       .  T
C685        C686   1.205       .  T
C686        C687   1.411       .  S
C687        C688   1.205       .  T
C689        C690   1.205       .  T
C690        C691   1.411       .  S
C691        C692   1.205       .  T
C693        C694   1.205       .  T
C694        C695   1.411       .  S
C695        C696   1.205       .  T
C697        C698   1.205       .  T
C698        C699   1.411       .  S
C699        C700   1.205       .  T
C701        C702   1.205       .  T
C702        C703   1.411       .  S
C703        C704   1.205       .  T
C705        C706   1.205       .  T
C706        C707   1.411       .  S
C707        C708   1.205       .  T
C709        C710   1.205       .  T
C710        C711   1.411       .  S
C711        C712   1.205       .  T
C713        C714   1.205       .  T
C714        C715   1.411   1_554  S
C715        C716   1.205       .  T
C717        C718   1.205       .  T
C718        C719   1.411       .  S
C719        C720   1.205       .  T
C721        C722   1.205       .  T
C722        C723   1.411   1_455  S
C723        C724   1.205       .  T
C725        C726   1.205       .  T
C726        C727   1.412       .  S
C727        C728   1.205       .  T
C729        C730   1.205       .  T
C730        C731   1.411   1_455  S
C731        C732   1.205       .  T
C733        C734   1.205       .  T
C734        C735   1.411   1_556  S
C735        C736   1.205       .  T
C737        C738   1.205       .  T
C738        C739   1.411       .  S
C739        C740   1.205       .  T
C741        C742   1.205       .  T
C742        C743   1.411       .  S
C743        C744   1.205       .  T
C745        C746   1.205       .  T
C746        C747   1.411   1_556  S
C747        C748   1.205       .  T
C749        C750   1.205       .  T
C750        C751   1.411       .  S
C751        C752   1.205       .  T
C753        C754   1.205       .  T
C754        C755   1.411   1_565  S
C755        C756   1.205       .  T
C757        C758   1.205       .  T
C758        C759   1.412       .  S
C759        C760   1.205       .  T
C761        C762   1.205       .  T
C762        C763   1.411   1_565  S
C763        C764   1.205       .  T
C765        C766   1.205       .  T
C766        C767   1.411   1_554  S
C767        C768   1.205       .  T
C769        C770   1.205       .  T
C770        C771   1.411       .  S
C771        C772   1.205       .  T
C773        C774   1.205       .  T
C774        C775   1.411       .  S
C775        C776   1.205       .  T
C777        C778   1.205       .  T
C778        C779   1.411   1_554  S
C779        C780   1.205       .  T
C781        C782   1.205       .  T
C782        C783   1.411       .  S
C783        C784   1.205       .  T
C785        C786   1.205       .  T
C786        C787   1.411   1_655  S
C787        C788   1.205       .  T
C789        C790   1.205       .  T
C790        C791   1.411       .  S
C791        C792   1.205       .  T
C793        C794   1.205       .  T
C794        C795   1.411   1_655  S
C795        C796   1.205       .  T
C797        C798   1.205       .  T
C798        C799   1.411   1_556  S
C799        C800   1.205       .  T
C801        C802   1.205       .  T
C802        C803   1.411       .  S
C803        C804   1.205       .  T
C805        C806   1.205       .  T
C806        C807   1.411       .  S
C807        C808   1.205       .  T
C809        C810   1.205       .  T
C810        C811   1.411   1_556  S
C811        C812   1.205       .  T
C813        C814   1.205       .  T
C814        C815   1.412       .  S
C815        C816   1.205       .  T
C817        C818   1.205       .  T
C818        C819   1.411   1_545  S
C819        C820   1.205       .  T
C821        C822   1.205       .  T
C822        C823   1.411       .  S
C823        C824   1.205       .  T
C825        C826   1.205       .  T
C826        C827   1.411   1_565  S
C827        C828   1.205       .  T
C829        C830   1.205       .  T
C830        C831   1.411   1_554  S
C831        C832   1.205       .  T
C833        C834   1.205       .  T
C834        C835   1.411   1_565  S
C835        C836   1.205       .  T
C837        C838   1.205       .  T
C838        C839   1.411   1_455  S
C839        C840   1.205       .  T
C841        C842   1.205       .  T
C842        C843   1.411   1_655  S
C843        C844   1.205       .  T
C845        C846   1.205       .  T
C846        C847   1.411   1_545  S
C847        C848   1.205       .  T
C849        C850   1.205       .  T
C850        C851   1.411       .  S
C851        C852   1.205       .  T
C853        C854   1.205       .  T
C854        C855   1.411       .  S
C855        C856   1.205       .  T
C857        C858   1.205       .  T
C858        C859   1.411       .  S
C859        C860   1.205       .  T
C861        C862   1.205       .  T
C862        C863   1.411       .  S
C863        C864   1.205       .  T
C865        C866   1.205       .  T
C866        C867   1.411       .  S
C867        C868   1.205       .  T
C869        C870   1.205       .  T
C870        C871   1.412       .  S
C871        C872   1.205       .  T
C873        C874   1.205       .  T
C874        C875   1.411       .  S
C875        C876   1.205       .  T
C877        C878   1.205       .  T
C878        C879   1.411       .  S
C879        C880   1.205       .  T
C881        C882   1.205       .  T
C882        C883   1.412       .  S
C883        C884   1.205       .  T
C885        C886   1.205       .  T
C886        C887   1.411       .  S
C887        C888   1.205       .  T
C889        C890   1.205       .  T
C890        C891   1.412       .  S
C891        C892   1.205       .  T
C893        C894   1.205       .  T
C894        C895   1.411       .  S
C895        C896   1.205       .  T
C897        C898   1.205       .  T
C898        C899   1.411       .  S
C899        C900   1.205       .  T
C901        C902   1.205       .  T
C902        C903   1.411       .  S
C903        C904   1.205       .  T
C905        C906   1.205       .  T
C906        C907   1.411       .  S
C907        C908   1.205       .  T
C909        C910   1.205       .  T
C910        C911   1.411       .  S
C911        C912   1.205       .  T
C913        C914   1.205       .  T
C914        C915   1.411       .  S
C915        C916   1.205       .  T
C917        C918   1.205       .  T
C918        C919   1.411       .  S
C919        C920   1.205       .  T
C921        C922   1.205       .  T
C922        C923   1.411       .  S
C923        C924   1.205       .  T
C925        C926   1.205       .  T
C926        C927   1.411       .  S
C927        C928   1.205       .  T
C929        C930   1.205       .  T
C930        C931   1.411       .  S
C931        C932   1.205       .  T
C933        C934   1.205       .  T
C934        C935   1.411       .  S
C935        C936   1.205       .  T
C937        C938   1.205       .  T
C938        C939   1.411       .  S
C939        C940   1.205       .  T
C941        C942   1.205       .  T
C942        C943   1.411       .  S
C943        C944   1.205       .  T
C945        C946   1.205       .  T
C946        C947   1.411       .  S
C947        C948   1.205       .  T
C949        C950   1.205       .  T
C950        C951   1.411       .  S
C951        C952   1.205       .  T
C953        C954   1.205       .  T
C954        C955   1.411       .  S
C955        C956   1.205       .  T
C957        C958   1.205       .  T
C958        C959   1.411       .  S
C959        C960   1.205       .  T
C961        C962   1.205       .  T
C962        C963   1.411       .  S
C963        C964   1.205       .  T
C965        C966   1.205       .  T
C966        C967   1.411       .  S
C967        C968   1.205       .  T
C969        C970   1.205       .  T
C970        C971   1.411       .  S
C971        C972   1.205       .  T
C973        C974   1.205       .  T
C974        C975   1.411       .  S
C975        C976   1.205       .  T
C977        C978   1.205       .  T
C978        C979   1.411       .  S
C979        C980   1.205       .  T
C981        C982   1.205       .  T
C982        C983   1.411       .  S
C983        C984   1.205       .  T
C985        C986   1.205       .  T
C986        C987   1.411       .  S
C987        C988   1.205       .  T
C989        C990   1.205       .  T
C990        C991   1.412       .  S
C991        C992   1.205       .  T
C993        C994   1.205       .  T
C994        C995   1.411       .  S
C995        C996   1.205       .  T
C997        C998   1.205       .  T
C998        C999   1.411       .  S
C999       C1000   1.205       .  T
C1001      C1002   1.205       .  T
C1002      C1003   1.411       .  S
C1003      C1004   1.205       .  T
C1005      C1006   1.205       .  T
C1006      C1007   1.411       .  S
C1007      C1008   1.205       .  T
C1009      C1010   1.205       .  T
C1010      C1011   1.411       .  S
C1011      C1012   1.205       .  T
C1013      C1014   1.205       .  T
C1014      C1015   1.411       .  S
C1015      C1016   1.205       .  T
C1017      C1018   1.205       .  T
C1018      C1019   1.411       .  S
C1019      C1020   1.205       .  T
C1021      C1022   1.205       .  T
C1022      C1023   1.411       .  S
C1023      C1024   1.205       .  T
C1025      C1026   1.205       .  T
C1026      C1027   1.411   1_565  S
C1027      C1028   1.205       .  T
C1029      C1030   1.205       .  T
C1030      C1031   1.411       .  S
C1031      C1032   1.205       .  T
C1033      C1034   1.205       .  T
C1034      C1035   1.411       .  S
C1035      C1036   1.205       .  T
C1037      C1038   1.205       .  T
C1038      C1039   1.411   1_455  S
C1039      C1040   1.205       .  T
C1041      C1042   1.205       .  T
C1042      C1043   1.411       .  S
C1043      C1044   1.205       .  T
C1045      C1046   1.205       .  T
C1046      C1047   1.412       .  S
C1047      C1048   1.205       .  T
C1049      C1050   1.205       .  T
C1050      C1051   1.411   1_455  S
C1051      C1052   1.205       .  T
C1053      C1054   1.205       .  T
C1054      C1055   1.411   1_545  S
C1055      C1056   1.205       .  T
