geometry optimzed in LAMMPS
_audit_creation_date              2020-11-30 
_audit_creation_method            'lammps2cif' 
_symmetry_space_group_name_H-M    'P1' 
_symmetry_Int_Tables_number       1 
_symmetry_cell_setting            triclinic 
loop_ 
_symmetry_equiv_pos_as_xyz 
  x,y,z 
_cell_length_a                    30.94976535 
_cell_length_b                    30.900703632031128 
_cell_length_c                    46.28475871295523 
_cell_angle_alpha                 90.19180291328124 
_cell_angle_beta                  89.73148255894385 
_cell_angle_gamma                 120.19151662056171 
loop_ 
_atom_site_label 
_atom_site_type_symbol 
_atom_site_fract_x 
_atom_site_fract_y 
_atom_site_fract_z 
_atom_site_charge 
O1          O  0.25729831  0.00565891  0.65663540    -0.85600
O2          O  0.33692468  0.03635310  0.61994191    -0.82600
C3          C  0.32430405  0.05601720  0.60011437     0.97900
O4          O  0.32373813  0.09572631  0.60492588    -0.82700
O5          O  0.31688373  0.17058168  0.63430781    -0.85300
C6          C  0.27310702  0.15353791  0.64489544     1.02400
O7          O  0.25684824  0.11941766  0.66332760    -0.78100
O8          O  0.24299871  0.04008627  0.69436812    -0.78300
C9          C  0.22758721  0.00574099  0.67519959     1.02400
O10         O  0.32040223  0.03001152  0.70657236    -0.85600
O11         O  0.40097074  0.07243098  0.67032903    -0.82600
C12         C  0.43341527  0.10452106  0.65374529     0.97900
O13         O  0.42044175  0.12401525  0.63363951    -0.82700
O14         O  0.40901522  0.19135663  0.66371985    -0.85300
C15         C  0.39323864  0.21283376  0.67981883     1.02400
O16         O  0.34962887  0.18821740  0.69077809    -0.78100
O17         O  0.34111912  0.10562053  0.72070008    -0.78200
C18         C  0.33458169  0.06295639  0.72627665     1.02300
Cr19       Cr  0.32909119  0.04016627  0.66327104     1.93700
Cr20       Cr  0.36487166  0.14213826  0.63578788     1.93200
Cr21       Cr  0.30038029  0.11238685  0.69060046     1.39100
O22         O  0.33130749  0.09838122  0.66310911    -1.23300
O23         O  0.33162763  0.93233713  0.00568299    -0.85600
O24         O  0.37087063  0.01550200  0.03921420    -0.82600
C25         C  0.38862754  0.00063131  0.05892247     0.97900
O26         O  0.42669885  0.99717203  0.05365087    -0.82700
O27         O  0.49794746  0.98438460  0.02295799    -0.85300
C28         C  0.47765768  0.93974666  0.01308911     1.02400
O29         O  0.43887488  0.92306522  0.99849035    -0.78100
O30         O  0.35988444  0.90974975  0.96902985    -0.78300
C31         C  0.32807797  0.89802163  0.98963044     1.02400
O32         O  0.35546600  0.99044231  0.95372900    -0.85600
O33         O  0.40723815  0.07414182  0.98690720    -0.82600
C34         C  0.43822641  0.10603981  0.00411006     0.97900
O35         O  0.45827622  0.09282205  0.02370957    -0.82700
O36         O  0.52242259  0.07605334  0.99273289    -0.85300
C37         C  0.53990400  0.05739353  0.97559349     1.02400
O38         O  0.51166578  0.01273587  0.96630605    -0.78100
O39         O  0.42780625  0.00431865  0.93757246    -0.78200
C40         C  0.38660669  0.00205218  0.93326808     1.02300
Cr41       Cr  0.37026144  0.00318209  0.99630288     1.93700
Cr42       Cr  0.47270804  0.03490308  0.02178588     1.93200
Cr43       Cr  0.43428959  0.96534618  0.96925380     1.39100
O44         O  0.42614009  0.00142041  0.99566549    -1.23300
O45         O  0.32799987  0.92348235  0.32333530    -0.85600
O46         O  0.28577774  0.96402432  0.28723441    -0.82600
C47         C  0.26950811  0.93186162  0.26696860     0.97900
O48         O  0.23711736  0.88759334  0.27269239    -0.82700
O49         O  0.17029902  0.80032441  0.30058983    -0.85300
C50         C  0.19386383  0.77979351  0.31087549     1.02400
O51         O  0.22621369  0.80170640  0.32982222    -0.78100
O52         O  0.29890823  0.87400968  0.36105850    -0.78300
C53         C  0.33187537  0.89490417  0.34121140     1.02400
O54         O  0.29476922  0.95420350  0.37424113    -0.85600
O55         O  0.24258520  0.98128353  0.33844803    -0.82600
C56         C  0.20805941  0.97593315  0.32196187     0.97900
O57         O  0.19337596  0.94378431  0.30140126    -0.82700
O58         O  0.13462760  0.86077344  0.33010274    -0.85300
C59         C  0.11729062  0.82397593  0.34653884     1.02400
O60         O  0.14638387  0.81044644  0.35757837    -0.78100
O61         O  0.22260952  0.89145549  0.38805497    -0.78200
C62         C  0.26205248  0.93166322  0.39382216     1.02300
Cr63       Cr  0.28447662  0.95170546  0.33071515     1.93700
Cr64       Cr  0.18719630  0.87420465  0.30280050     1.93200
Cr65       Cr  0.22380727  0.84773701  0.35749732     1.39100
O66         O  0.23153140  0.89101535  0.33037130    -1.23300
O67         O  0.66668105  0.60060863  0.67969677    -0.85600
O68         O  0.70160083  0.68402645  0.71412092    -0.82600
C69         C  0.72246548  0.67367874  0.73436758     0.97900
O70         O  0.76020772  0.66957412  0.72914282    -0.82700
O71         O  0.83244927  0.65836618  0.69820937    -0.85300
C72         C  0.81308925  0.61322790  0.68910355     1.02400
O73         O  0.77639691  0.59612015  0.67260530    -0.78100
O74         O  0.69798602  0.58288469  0.64174982    -0.78300
C75         C  0.66494005  0.56926238  0.66163453     1.02400
O76         O  0.68966862  0.65974856  0.62813051    -0.85600
O77         O  0.73618489  0.74353091  0.66204198    -0.82600
C78         C  0.76926046  0.77648365  0.67797524     0.97900
O79         O  0.78769170  0.76354917  0.69858875    -0.82700
O80         O  0.84858209  0.74866651  0.66621875    -0.85300
C81         C  0.87167124  0.73208537  0.65262065     1.02400
O82         O  0.84768341  0.68725159  0.64313160    -0.78100
O83         O  0.76425499  0.67841824  0.61313623    -0.78200
C84         C  0.72139561  0.67151915  0.60787265     1.02300
Cr85       Cr  0.70207389  0.67196810  0.67107670     1.93700
Cr86       Cr  0.80433234  0.70729473  0.69669997     1.93200
Cr87       Cr  0.77093298  0.63893761  0.64411242     1.39100
O88         O  0.75883570  0.67214602  0.67092128    -1.23300
O89         O  0.66957474  0.59711789  0.99759289    -0.85600
O90         O  0.63504624  0.64493099  0.96262460    -0.82600
C91         C  0.61570997  0.61330279  0.94238888     0.97900
O92         O  0.57860590  0.57072097  0.94725319    -0.82700
O93         O  0.50175064  0.48757206  0.97639515    -0.85300
C94         C  0.52010864  0.46198005  0.98651229     1.02400
O95         O  0.55745539  0.48257379  0.00238975    -0.78100
O96         O  0.63539136  0.54574343  0.03423417    -0.78300
C97         C  0.66974265  0.56609337  0.01509656     1.02400
O98         O  0.64372456  0.63330186  0.04837035    -0.85600
O99         O  0.59799778  0.66915755  0.01321596    -0.82600
C100        C  0.56869736  0.67083668  0.99512939     0.97900
O101        O  0.54921048  0.63738100  0.97548098    -0.82700
O102        O  0.48152507  0.55834889  0.00550576    -0.85300
C103        C  0.46194667  0.52345496  0.02335345     1.02400
O104        O  0.48668969  0.50382211  0.03304858    -0.78100
O105        O  0.56970967  0.57547655  0.06335752    -0.78200
C106        C  0.61150183  0.61351537  0.06831505     1.02300
Cr107      Cr  0.63266571  0.63217954  0.00544130     1.93700
Cr108      Cr  0.53126101  0.56413767  0.97778721     1.93200
Cr109      Cr  0.56283521  0.53003684  0.03162133     1.39100
O110        O  0.57527093  0.57544052  0.00512813    -1.23300
O111        O  0.59824387  0.66805135  0.32499701    -0.85600
O112        O  0.68331159  0.70803859  0.29306401    -0.82600
C113        C  0.67020483  0.72874602  0.27420492     0.97900
O114        O  0.66518388  0.76533832  0.28081969    -0.82700
O115        O  0.65377516  0.83494121  0.31328316    -0.85300
C116        C  0.60845433  0.81433683  0.32217221     1.02400
O117        O  0.59049625  0.77483661  0.33638066    -0.78100
O118        O  0.57506347  0.69165478  0.36349236    -0.78300
C119        C  0.56404250  0.66121695  0.34217023     1.02400
O120        O  0.65353328  0.68491912  0.37823505    -0.85600
O121        O  0.73903781  0.73710596  0.34610576    -0.82600
C122        C  0.77169773  0.76821622  0.32918642     0.97900
O123        O  0.76001632  0.79149592  0.31073681    -0.82700
O124        O  0.74392997  0.85331651  0.34368105    -0.85300
C125        C  0.72563577  0.87062425  0.36106974     1.02400
O126        O  0.68033594  0.84323716  0.36952039    -0.78100
O127        O  0.66903586  0.75702518  0.39586582    -0.78200
C128        C  0.66494128  0.71488222  0.39937588     1.02300
Cr129      Cr  0.66846188  0.70318923  0.33584905     1.93700
Cr130      Cr  0.70304625  0.80782500  0.31345994     1.93200
Cr131      Cr  0.63147120  0.76640793  0.36487737     1.39100
O132        O  0.66800723  0.75955610  0.33821974    -1.23300
O133        O  0.92695134  0.33693987  0.67206542    -0.85600
O134        O  0.97270888  0.30112242  0.70701746    -0.82600
C135        C  0.93970365  0.28325606  0.72667054     0.97900
O136        O  0.89841487  0.24545975  0.72119935    -0.82700
O137        O  0.81472527  0.17546586  0.69348381    -0.85300
C138        C  0.79001713  0.19386378  0.68200845     1.02400
O139        O  0.80750987  0.22235587  0.66067953    -0.78100
O140        O  0.87699154  0.30636854  0.63509037    -0.78300
C141        C  0.89689398  0.33946916  0.65530799     1.02400
O142        O  0.96481404  0.31632385  0.62111689    -0.85600
O143        O  0.99786157  0.26566427  0.65585776    -0.82600
C144        C  0.99541387  0.23078302  0.67108231     0.97900
O145        O  0.96183256  0.21105273  0.69086423    -0.82700
O146        O  0.87930999  0.14538959  0.66368950    -0.85300
C147        C  0.85016671  0.12926595  0.64271837     1.02400
O148        O  0.83492044  0.15655878  0.63096485    -0.78100
O149        O  0.91140652  0.24244633  0.60535937    -0.78200
C150        C  0.94653946  0.28587172  0.60027006     1.02300
Cr151      Cr  0.96126815  0.30042624  0.66395345     1.93700
Cr152      Cr  0.88965396  0.19806340  0.69042042     1.93200
Cr153      Cr  0.86120692  0.23260217  0.63487349     1.39100
O154        O  0.90344435  0.24308654  0.66311793    -1.23300
O155        O  0.07357286  0.40241362  0.00569241    -0.85600
O156        O  0.99321118  0.35463878  0.04188254    -0.82600
C157        C  0.00216177  0.38455737  0.06304084     0.97900
O158        O  0.00357557  0.42540282  0.05892215    -0.82700
O159        O  0.01504740  0.51025692  0.03097048    -0.85300
C160        C  0.06058477  0.53685235  0.02255711     1.02400
O161        O  0.07761322  0.51889538  0.00474248    -0.78100
O162        O  0.09213897  0.45760312  0.97159222    -0.78300
C163        C  0.10628253  0.43784790  0.99095720     1.02400
O164        O  0.01172390  0.37065259  0.95482888    -0.85600
O165        O  0.92969776  0.33026702  0.99092640    -0.82600
C166        C  0.89768081  0.32632339  0.00918751     0.97900
O167        O  0.91094340  0.35897068  0.02923476    -0.82700
O168        O  0.92436263  0.43729894  0.99788721    -0.85300
C169        C  0.94084950  0.47851587  0.98587951     1.02400
O170        O  0.98601010  0.50083849  0.97678871    -0.78100
O171        O  0.99393429  0.42854138  0.94398416    -0.78200
C172        C  0.99849973  0.39204176  0.93632413     1.02300
Cr173      Cr  0.00195895  0.36812016  0.99847204     1.93700
Cr174      Cr  0.96609938  0.43287520  0.02759870     1.93200
Cr175      Cr  0.03469989  0.47267124  0.97547637     1.39100
O176        O  0.00186238  0.42487455  0.00097686    -1.23300
O177        O  0.00576076  0.25516928  0.32361617    -0.85600
O178        O  0.03753844  0.31241803  0.37237141    -0.82600
C179        C  0.06602330  0.33272925  0.39349323     0.97900
O180        O  0.11240036  0.35706576  0.38993974    -0.82700
O181        O  0.13926947  0.28442040  0.37571516    -0.85300
C182        C  0.14590558  0.25405197  0.36024637     1.02400
O183        O  0.15292029  0.26162537  0.33342038    -0.78100
O184        O  0.05370696  0.22160325  0.31920940    -0.78300
C185        C  0.01103115  0.21710565  0.32374916     1.02400
O186        O  0.05948107  0.34319377  0.28892689    -0.85600
O187        O  0.09345177  0.40238711  0.33673523    -0.82600
C188        C  0.14018712  0.43340591  0.33681337     0.97900
O189        O  0.17123567  0.41935154  0.34338093    -0.82700
O190        O  0.21026852  0.35588197  0.33636773    -0.85300
C191        C  0.21805079  0.36581557  0.30994382     1.02400
O192        O  0.18177872  0.34355029  0.29246484    -0.78100
O193        O  0.08184979  0.29098798  0.27302721    -0.78200
C194        C  0.06526857  0.31990897  0.26839567     1.02300
Cr195      Cr  0.05394210  0.32781742  0.33066671     1.93700
Cr196      Cr  0.15413814  0.35154851  0.35914716     1.93200
Cr197      Cr  0.11697307  0.28291204  0.30647829     1.39100
O198        O  0.10763990  0.32072123  0.33201639    -1.23300
C199        C  0.00872890  0.37148125  0.09319146     0.01100
C200        C  0.98208053  0.32122614  0.10313145     0.03900
C201        C  0.98794974  0.30971468  0.13183674    -0.12100
C202        C  0.01872261  0.34817204  0.15116810     0.23200
C203        C  0.04367117  0.39820566  0.14185825    -0.12700
C204        C  0.03946190  0.40996875  0.11306042     0.04600
C205        C  0.02791362  0.33662803  0.18091805     0.27100
C206        C  0.99520598  0.33089783  0.20377158    -0.13400
C207        C  0.00692678  0.32481770  0.23234855     0.05200
C208        C  0.05240322  0.32612141  0.23834431    -0.09400
C209        C  0.08518975  0.33227177  0.21526856     0.06000
C210        C  0.07246033  0.33652471  0.18670289    -0.13700
Br211      Br  0.08443674  0.45077343  0.16900362    -0.05800
Br212      Br  0.93445104  0.26781219  0.07864633    -0.00200
Br213      Br  0.95940510  0.31282216  0.26287626     0.00300
Br214      Br  0.11693419  0.34406780  0.15520795    -0.04100
Br215      Br  0.07807084  0.47949137  0.10163847     0.00400
Br216      Br  0.95408078  0.24112307  0.14487909    -0.03400
Br217      Br  0.93502252  0.33282278  0.19586928    -0.04300
Br218      Br  0.14963348  0.33889948  0.22250709    -0.00300
C219        C  0.99030435  0.37662476  0.90531486     0.01100
C220        C  0.00512335  0.41363046  0.88344783     0.03900
C221        C  0.99402599  0.39953448  0.85427722    -0.12100
C222        C  0.97059577  0.34878006  0.84634281     0.23200
C223        C  0.95648052  0.31182143  0.86776673    -0.12700
C224        C  0.96583444  0.32554159  0.89713188     0.04600
C225        C  0.96322776  0.33447434  0.81529572     0.27100
C226        C  0.91691514  0.31882140  0.80200360    -0.13400
C227        C  0.90972371  0.30387140  0.77278695     0.05200
C228        C  0.94913918  0.30434759  0.75655607    -0.09400
C229        C  0.99605190  0.32154113  0.76997452     0.06000
C230        C  0.00278948  0.33623279  0.79922308    -0.13700
Br231      Br  0.92382039  0.24214247  0.85660572    -0.05800
Br232      Br  0.04399182  0.48427385  0.89253468    -0.00200
Br233      Br  0.84567142  0.28422764  0.75539611     0.00300
Br234      Br  0.06592855  0.35722483  0.81796880    -0.04100
Br235      Br  0.94301185  0.27347620  0.92563804     0.00400
Br236      Br  0.01051095  0.44973555  0.82488479    -0.03400
Br237      Br  0.86314450  0.31727009  0.82428117    -0.04300
Br238      Br  0.05087699  0.32234774  0.74942826    -0.00300
C239        C  0.96395721  0.30072318  0.56977844     0.01100
C240        C  0.01502248  0.33366965  0.56291361     0.03900
C241        C  0.03089510  0.34212078  0.53375962    -0.12100
C242        C  0.99621828  0.31819563  0.51131591     0.23200
C243        C  0.94521563  0.28781361  0.51791691    -0.12700
C244        C  0.92890795  0.28003333  0.54686302     0.04600
C245        C  0.01355984  0.32217753  0.48086647     0.27100
C246        C  0.01687437  0.36004276  0.46244745    -0.13400
C247        C  0.03296822  0.36291071  0.43356438     0.05200
C248        C  0.04560322  0.32784358  0.42301814    -0.09400
C249        C  0.04229523  0.29014126  0.44151105     0.06000
C250        C  0.02593360  0.28702351  0.47022273    -0.13700
Br251      Br  0.89787153  0.25536686  0.48699574    -0.05800
Br252      Br  0.06434530  0.36649336  0.59283690    -0.00200
Br253      Br  0.03913336  0.41554818  0.40855946     0.00300
Br254      Br  0.02038346  0.23447223  0.49517317    -0.04100
Br255      Br  0.85773102  0.24350024  0.55440100     0.00400
Br256      Br  0.10060708  0.38513203  0.52423631    -0.03400
Br257      Br  0.99955413  0.40790116  0.47695294    -0.04300
Br258      Br  0.06132166  0.24328032  0.42784999    -0.00300
C259        C  0.27046175  0.40394208  0.30201992     0.01100
C260        C  0.30885634  0.39824928  0.31441229     0.03900
C261        C  0.35478399  0.44036304  0.32227544    -0.12100
C262        C  0.36535795  0.48905984  0.31484632     0.23200
C263        C  0.32958603  0.49433993  0.29864903    -0.12700
C264        C  0.28208093  0.45205247  0.29266679     0.04600
C265        C  0.41548710  0.53371893  0.32208358     0.27100
C266        C  0.42090085  0.56840869  0.34376495    -0.13400
C267        C  0.46831917  0.61114942  0.34954792     0.05200
C268        C  0.51238672  0.61644557  0.33643365    -0.09400
C269        C  0.50638662  0.57882693  0.31593366     0.06000
C270        C  0.45838996  0.54048971  0.30755866    -0.13700
Br271      Br  0.34534885  0.55973217  0.28532179    -0.05800
Br272      Br  0.29747829  0.33170023  0.32066223    -0.00200
Br273      Br  0.47080732  0.66322910  0.37382470     0.00300
Br274      Br  0.45090322  0.49678619  0.27549154    -0.04100
Br275      Br  0.23257365  0.46003933  0.27229274     0.00400
Br276      Br  0.40172335  0.43113356  0.34496291    -0.03400
Br277      Br  0.36320839  0.55631033  0.36621621    -0.04300
Br278      Br  0.56226249  0.57517659  0.29937773    -0.00300
C279        C  0.96621288  0.16676248  0.33056630     0.01100
C280        C  0.93135641  0.16220199  0.35231439     0.03900
C281        C  0.89244866  0.11473288  0.36106919    -0.12100
C282        C  0.88567412  0.07107222  0.34748638     0.23200
C283        C  0.91939775  0.07498340  0.32561345    -0.12700
C284        C  0.95963431  0.12234523  0.31732521     0.04600
C285        C  0.84149680  0.02147694  0.35543497     0.27100
C286        C  0.84631554  0.98894384  0.37471672    -0.13400
C287        C  0.80486253  0.94105220  0.38065599     0.05200
C288        C  0.75806667  0.92505585  0.36750994    -0.09400
C289        C  0.75244863  0.96005798  0.35064559     0.06000
C290        C  0.79393999  0.00757580  0.34433609    -0.13700
Br291      Br  0.91050996  0.01502358  0.30715627    -0.05800
Br292      Br  0.93606883  0.21964776  0.37183284    -0.00200
Br293      Br  0.81246993  0.89573751  0.40568150     0.00300
Br294      Br  0.78639903  0.05289387  0.31893852    -0.04100
Br295      Br  0.00496130  0.12554273  0.28745328     0.00400
Br296      Br  0.84859261  0.10874971  0.39265175    -0.03400
Br297      Br  0.91037549  0.00947298  0.39195533    -0.04300
Br298      Br  0.68897267  0.94262228  0.33416569    -0.00300
C299        C  0.66332434  0.71225365  0.24404431     0.01100
C300        C  0.70528194  0.72327057  0.22683976     0.03900
C301        C  0.69892675  0.70949057  0.19755765    -0.12100
C302        C  0.65062540  0.68450900  0.18558992     0.23200
C303        C  0.60875860  0.67426729  0.20268799    -0.12700
C304        C  0.61519117  0.68875311  0.23184420     0.04600
C305        C  0.64353889  0.66795009  0.15516422     0.27100
C306        C  0.63805246  0.69690339  0.13364574    -0.13400
C307        C  0.62748219  0.67909428  0.10510746     0.05200
C308        C  0.62386527  0.63305008  0.09793995    -0.09400
C309        C  0.63134221  0.60507116  0.11930720     0.06000
C310        C  0.64075807  0.62233521  0.14796832    -0.13700
Br311      Br  0.54265645  0.64016172  0.18610625    -0.05800
Br312      Br  0.77163558  0.75982088  0.24294013    -0.00200
Br313      Br  0.61551641  0.71662887  0.07630637     0.00300
Br314      Br  0.64963930  0.58362184  0.17757706    -0.04100
Br315      Br  0.55817530  0.67674814  0.25501879     0.00400
Br316      Br  0.75619539  0.72520880  0.17363130    -0.03400
Br317      Br  0.64505308  0.76088978  0.14341071    -0.04300
Br318      Br  0.62983204  0.54367134  0.10924731    -0.00300
C319        C  0.71165763  0.55545721  0.01291862     0.01100
C320        C  0.70240965  0.50588295  0.01038390     0.03900
C321        C  0.74184645  0.49701427  0.00355200    -0.12100
C322        C  0.79095610  0.53743769  0.99945544     0.23200
C323        C  0.80063997  0.58674746  0.00321789    -0.12700
C324        C  0.76134298  0.59577107  0.00991101     0.04600
C325        C  0.83326759  0.52773851  0.99525036     0.27100
C326        C  0.85275784  0.51651603  0.01953990    -0.13400
C327        C  0.88935236  0.50274469  0.01624733     0.05200
C328        C  0.90877587  0.50177446  0.98844721    -0.09400
C329        C  0.89097281  0.51552593  0.96416285     0.06000
C330        C  0.85317922  0.52838556  0.96757492    -0.13700
Br331      Br  0.86840124  0.64185064  0.00014462    -0.05800
Br332      Br  0.63588757  0.44964680  0.01554857    -0.00200
Br333      Br  0.91094898  0.48375830  0.05070344     0.00300
Br334      Br  0.82738359  0.54553959  0.93444908    -0.04100
Br335      Br  0.77648915  0.66372860  0.01663355     0.00400
Br336      Br  0.72895877  0.42919794  0.00024713    -0.03400
Br337      Br  0.82811335  0.51911100  0.05764933    -0.04300
Br338      Br  0.91517167  0.51268173  0.92621527    -0.00300
C339        C  0.40836783  0.50507294  0.02978277     0.01100
C340        C  0.39552148  0.54028143  0.03993299     0.03900
C341        C  0.34873400  0.53521876  0.03311639    -0.12100
C342        C  0.31305344  0.49313935  0.01744127     0.23200
C343        C  0.32376420  0.45513291  0.01015370    -0.12700
C344        C  0.37125927  0.46122902  0.01602996     0.04600
C345        C  0.26216425  0.48545621  0.01122987     0.27100
C346        C  0.22455752  0.46191521  0.03210540    -0.13400
C347        C  0.17426802  0.44538542  0.02529966     0.05200
C348        C  0.16064803  0.45526552  0.99751750    -0.09400
C349        C  0.19958250  0.48140957  0.97697049     0.06000
C350        C  0.24977347  0.49575193  0.98377420    -0.13700
Br351      Br  0.27329278  0.39511801  0.99128156    -0.05800
Br352      Br  0.44351286  0.59622465  0.06268611    -0.00200
Br353      Br  0.12601587  0.40753391  0.05523475     0.00300
Br354      Br  0.30210812  0.52870693  0.95533072    -0.04100
Br355      Br  0.38589248  0.41051495  0.00362113     0.00400
Br356      Br  0.33436291  0.58685684  0.04420127    -0.03400
Br357      Br  0.24274154  0.45130707  0.07035494    -0.04300
Br358      Br  0.18505633  0.49466107  0.93856292    -0.00300
C359        C  0.70491040  0.66959206  0.76459272     0.01100
C360        C  0.73880444  0.70004274  0.78623629     0.03900
C361        C  0.72341075  0.69431906  0.81528604    -0.12100
C362        C  0.67454297  0.65750743  0.82298197     0.23200
C363        C  0.64000341  0.62843362  0.80141499    -0.12700
C364        C  0.65500201  0.63475698  0.77221352     0.04600
C365        C  0.66061679  0.64742869  0.85392292     0.27100
C366        C  0.66875145  0.61249185  0.86887430    -0.13400
C367        C  0.65438357  0.60154761  0.89799494     0.05200
C368        C  0.63398940  0.62722000  0.91258075    -0.09400
C369        C  0.62831546  0.66416636  0.89805859     0.06000
C370        C  0.64071537  0.67352731  0.86858627    -0.13700
Br371      Br  0.57248850  0.57919159  0.81215796    -0.05800
Br372      Br  0.80624151  0.75058378  0.77627414    -0.00200
Br373      Br  0.66372588  0.55232162  0.91823245     0.00300
Br374      Br  0.63032872  0.72187575  0.84817650    -0.04100
Br375      Br  0.60770567  0.59363959  0.74307257     0.00400
Br376      Br  0.76915522  0.73645712  0.84488582    -0.03400
Br377      Br  0.70074143  0.58062192  0.84953037    -0.04300
Br378      Br  0.60229008  0.70112928  0.91812633    -0.00300
C379        C  0.78584081  0.82981408  0.67124980     0.01100
C380        C  0.79758524  0.84624140  0.64227150     0.03900
C381        C  0.80247795  0.89221083  0.63366640    -0.12100
C382        C  0.80145083  0.92521188  0.65441507     0.23200
C383        C  0.79444291  0.91084685  0.68387153    -0.12700
C384        C  0.78501715  0.86272128  0.69213680     0.04600
C385        C  0.81156689  0.97626864  0.64551409     0.27100
C386        C  0.86063116  0.01379764  0.63845650    -0.13400
C387        C  0.87117010  0.06275813  0.63207904     0.05200
C388        C  0.83382087  0.07626447  0.63446548    -0.09400
C389        C  0.78396491  0.03774058  0.63912001     0.06000
C390        C  0.77281966  0.98786606  0.64428172    -0.13700
Br391      Br  0.79861742  0.95750559  0.71297821    -0.05800
Br392      Br  0.81141543  0.80769864  0.61461888    -0.00200
Br393      Br  0.93796985  0.11231445  0.62108886     0.00300
Br394      Br  0.70476430  0.93555107  0.65077832    -0.04100
Br395      Br  0.76923403  0.84130312  0.73177081     0.00400
Br396      Br  0.80957296  0.90943958  0.59320073    -0.03400
Br397      Br  0.91446426  0.99917060  0.63969326    -0.04300
Br398      Br  0.73149510  0.05384721  0.64022738    -0.00300
C399        C  0.83460126  0.57994395  0.69345148     0.01100
C400        C  0.80210814  0.53014450  0.70264825     0.03900
C401        C  0.81149247  0.49125239  0.69502363    -0.12100
C402        C  0.85367446  0.50157535  0.67816613     0.23200
C403        C  0.88784141  0.55154916  0.67048789    -0.12700
C404        C  0.87888818  0.59053556  0.67855320     0.04600
C405        C  0.86506491  0.46087467  0.67128513     0.27100
C406        C  0.89609661  0.45320993  0.68990069    -0.13400
C407        C  0.90596623  0.41392667  0.68500413     0.05200
C408        C  0.88640385  0.38217061  0.65988311    -0.09400
C409        C  0.85703096  0.39218570  0.64043450     0.06000
C410        C  0.84555785  0.43039334  0.64654311    -0.13700
Br411      Br  0.94604520  0.56601103  0.64772571    -0.05800
Br412      Br  0.74353779  0.51519519  0.72509637    -0.00200
Br413      Br  0.94586159  0.40599696  0.71452352     0.00300
Br414      Br  0.80298969  0.44159713  0.62107118    -0.04100
Br415      Br  0.92679833  0.65801434  0.66784651     0.00400
Br416      Br  0.76558901  0.42322289  0.70662788    -0.03400
Br417      Br  0.92555164  0.49792019  0.72261379    -0.04300
Br418      Br  0.83261245  0.35540424  0.60468950    -0.00300
C419        C  0.70729442  0.67323016  0.57764231     0.01100
C420        C  0.71412820  0.64416695  0.55641676     0.03900
C421        C  0.70305837  0.64721184  0.52735244    -0.12100
C422        C  0.68604538  0.67990099  0.51921020     0.23200
C423        C  0.67751111  0.70762549  0.54044534    -0.12700
C424        C  0.68753030  0.70383869  0.56969708     0.04600
C425        C  0.68025554  0.68712021  0.48809570     0.27100
C426        C  0.72294205  0.71839367  0.47140557    -0.13400
C427        C  0.71825139  0.72408609  0.44167026     0.05200
C428        C  0.67067805  0.70041400  0.42876529    -0.09400
C429        C  0.62802501  0.66856601  0.44532811     0.06000
C430        C  0.63290811  0.66132789  0.47489310    -0.13700
Br431      Br  0.65349455  0.75187129  0.52929406    -0.05800
Br432      Br  0.73711071  0.59866798  0.56700562    -0.00200
Br433      Br  0.77708056  0.76306375  0.41832474     0.00300
Br434      Br  0.57490090  0.61655427  0.49744123    -0.04100
Br435      Br  0.67623751  0.74236455  0.59855368     0.00400
Br436      Br  0.71153252  0.60694235  0.49835952    -0.03400
Br437      Br  0.78771629  0.75431191  0.48955678    -0.04300
Br438      Br  0.56275155  0.63646111  0.42777799    -0.00300
C439        C  0.57676744  0.83803933  0.32061810     0.01100
C440        C  0.55200275  0.83745386  0.29496759     0.03900
C441        C  0.51303340  0.84896344  0.29581226    -0.12100
C442        C  0.49933060  0.86195569  0.32220561     0.23200
C443        C  0.52580031  0.86523162  0.34742835    -0.12700
C444        C  0.56293031  0.85184207  0.34691166     0.04600
C445        C  0.45529580  0.86929379  0.32464068     0.27100
C446        C  0.46154546  0.91733441  0.32137487    -0.13400
C447        C  0.42246378  0.92631496  0.32878927     0.05200
C448        C  0.37543167  0.88658523  0.33826946    -0.09400
C449        C  0.36961224  0.83835330  0.34182594     0.06000
C450        C  0.40929530  0.82991778  0.33493580    -0.13700
Br451      Br  0.50915372  0.88602302  0.38329839    -0.05800
Br452      Br  0.56825724  0.81636180  0.25938555    -0.00200
Br453      Br  0.43599461  0.99455865  0.32864818     0.00300
Br454      Br  0.40120172  0.76416515  0.33988497    -0.04100
Br455      Br  0.59121902  0.84905797  0.38341562     0.00400
Br456      Br  0.47660692  0.84475799  0.26130493    -0.03400
Br457      Br  0.52446740  0.97106099  0.30713003    -0.04300
Br458      Br  0.30798811  0.78298339  0.35620263    -0.00300
C459        C  0.82224371  0.77340824  0.33080364     0.01100
C460        C  0.82563556  0.72938585  0.33177114     0.03900
C461        C  0.87084736  0.73172606  0.33920650    -0.12100
C462        C  0.91409191  0.77824989  0.34442764     0.23200
C463        C  0.91144752  0.82250472  0.34254125    -0.12700
C464        C  0.86565261  0.82009965  0.33596457     0.04600
C465        C  0.96359743  0.78103895  0.34685413     0.27100
C466        C  0.98759835  0.78685108  0.37372510    -0.13400
C467        C  0.03717439  0.79553226  0.37467845     0.05200
C468        C  0.06181794  0.79609143  0.34887757    -0.09400
C469        C  0.03485706  0.78379704  0.32256502     0.06000
C470        C  0.98709714  0.77836325  0.32141393    -0.13700
Br471      Br  0.97105294  0.88650442  0.34863567    -0.05800
Br472      Br  0.76884034  0.66553288  0.32117162    -0.00200
Br473      Br  0.07252605  0.80997601  0.41075187     0.00300
Br474      Br  0.95530800  0.77119043  0.28440452    -0.04100
Br475      Br  0.86252324  0.88069168  0.33464983     0.00400
Br476      Br  0.87407898  0.67105968  0.34180575    -0.03400
Br477      Br  0.95304784  0.78448242  0.40888912    -0.04300
Br478      Br  0.06439858  0.77747747  0.28711618    -0.00300
C479        C  0.14671239  0.20915350  0.37158046     0.01100
C480        C  0.10431829  0.16156636  0.36701367     0.03900
C481        C  0.10936207  0.12007794  0.35924911    -0.12100
C482        C  0.15692370  0.12431897  0.35942295     0.23200
C483        C  0.19795547  0.16916237  0.36997639    -0.12700
C484        C  0.19302871  0.21166674  0.37534422     0.04600
C485        C  0.16426022  0.08273291  0.34804783     0.27100
C486        C  0.15002064  0.03928046  0.36459103    -0.13400
C487        C  0.16044644  0.00220620  0.35456218     0.05200
C488        C  0.18572034  0.00810934  0.32800260    -0.09400
C489        C  0.19809412  0.05049045  0.31091836     0.06000
C490        C  0.18709848  0.08738504  0.32077192    -0.13700
Br491      Br  0.26097547  0.17246109  0.37635558    -0.05800
Br492      Br  0.03940037  0.15231994  0.37426167    -0.00200
Br493      Br  0.14151140  0.94371019  0.37793970     0.00300
Br494      Br  0.20477434  0.14543964  0.29728619    -0.04100
Br495      Br  0.24906081  0.27356099  0.38828178     0.00400
Br496      Br  0.05142545  0.05872692  0.34674118    -0.03400
Br497      Br  0.11851280  0.03163587  0.40179305    -0.04300
Br498      Br  0.23336311  0.05964537  0.27499755    -0.00300
C499        C  0.15749753  0.48706029  0.32905142     0.01100
C500        C  0.14164405  0.49869930  0.30289061     0.03900
C501        C  0.15186453  0.54774397  0.29708348    -0.12100
C502        C  0.17779374  0.58626291  0.31723773     0.23200
C503        C  0.19625676  0.57593862  0.34258949    -0.12700
C504        C  0.18648309  0.52671533  0.34839701     0.04600
C505        C  0.18035592  0.63561360  0.31291188     0.27100
C506        C  0.21943187  0.67453006  0.29690419    -0.13400
C507        C  0.22034988  0.72036024  0.29265663     0.05200
C508        C  0.18219387  0.72781652  0.30427391    -0.09400
C509        C  0.14192376  0.68772027  0.31897704     0.06000
C510        C  0.14128205  0.64224116  0.32349370    -0.13700
Br511      Br  0.23305299  0.62914401  0.36987371    -0.05800
Br512      Br  0.10652433  0.44876156  0.27390739    -0.00200
Br513      Br  0.27531725  0.77436402  0.27210130     0.00300
Br514      Br  0.08820172  0.58960898  0.34590078    -0.04100
Br515      Br  0.20995294  0.51321047  0.38383082     0.00400
Br516      Br  0.12860107  0.56237062  0.26171245    -0.03400
Br517      Br  0.27295273  0.66580620  0.28219790    -0.04300
Br518      Br  0.08940522  0.69618499  0.33536185    -0.00300
C519        C  0.28556044  0.94520564  0.23619744     0.01100
C520        C  0.33627409  0.97750434  0.22869286     0.03900
C521        C  0.35099970  0.98601401  0.19936679    -0.12100
C522        C  0.31553527  0.96185781  0.17730864     0.23200
C523        C  0.26508622  0.92972989  0.18457005    -0.12700
C524        C  0.24981348  0.92258681  0.21372916     0.04600
C525        C  0.33138486  0.97007880  0.14641604     0.27100
C526        C  0.33105150  0.00874814  0.13058199    -0.13400
C527        C  0.34821979  0.01808583  0.10172566     0.05200
C528        C  0.36609956  0.98863298  0.08846799    -0.09400
C529        C  0.36350645  0.94793334  0.10404774     0.06000
C530        C  0.34649409  0.93899774  0.13288372    -0.13700
Br531      Br  0.21725870  0.89406783  0.15431073    -0.05800
Br532      Br  0.38650638  0.00838144  0.25817835    -0.00200
Br533      Br  0.34840895  0.07258935  0.08129636     0.00300
Br534      Br  0.34317640  0.88363995  0.15403266    -0.04100
Br535      Br  0.17901456  0.88392403  0.22218050     0.00400
Br536      Br  0.42026336  0.02946190  0.18909328    -0.03400
Br537      Br  0.30714588  0.04909072  0.14878020    -0.04300
Br538      Br  0.37987117  0.90173646  0.08566577    -0.00300
C539        C  0.28598761  0.84491062  0.99584291     0.01100
C540        C  0.25644694  0.83407397  0.02177011     0.03900
C541        C  0.22073471  0.78433709  0.02921549    -0.12100
C542        C  0.20839864  0.74500748  0.00975764     0.23200
C543        C  0.23458197  0.75526001  0.98331417    -0.12700
C544        C  0.27475740  0.80401123  0.97700603     0.04600
C545        C  0.16891197  0.69261590  0.01769655     0.27100
C546        C  0.18281374  0.65867358  0.02822703    -0.13400
C547        C  0.14613137  0.60837373  0.03374398     0.05200
C548        C  0.09460886  0.59121538  0.02929601    -0.09400
C549        C  0.08066476  0.62686561  0.02179900     0.06000
C550        C  0.11758998  0.67699682  0.01556127    -0.13700
Br551      Br  0.21456502  0.70180067  0.95556523    -0.05800
Br552      Br  0.26084655  0.88506190  0.04820601    -0.00200
Br553      Br  0.16723986  0.56216876  0.04587783     0.00300
Br554      Br  0.09802752  0.72387505  0.00245656    -0.04100
Br555      Br  0.31376878  0.81235905  0.94261929     0.00400
Br556      Br  0.18926702  0.76906005  0.06696531    -0.03400
Br557      Br  0.25270941  0.68113624  0.03417677    -0.04300
Br558      Br  0.01130251  0.60695474  0.01795685    -0.00300
C559        C  0.59534668  0.08766758  0.97056981     0.01100
C560        C  0.62727233  0.08040348  0.98922230     0.03900
C561        C  0.67595044  0.11978578  0.99538516    -0.12100
C562        C  0.69581253  0.16587223  0.98082614     0.23200
C563        C  0.66645561  0.17153074  0.95954516    -0.12700
C564        C  0.61608761  0.13333748  0.95515614     0.04600
C565        C  0.74728695  0.20773407  0.98836346     0.27100
C566        C  0.75388086  0.24793041  0.00613305    -0.13400
C567        C  0.80247279  0.28630635  0.01415237     0.05200
C568        C  0.84501737  0.28307709  0.00604272    -0.09400
C569        C  0.83698778  0.23895260  0.99174768     0.06000
C570        C  0.78948666  0.20405674  0.98089370    -0.13700
Br571      Br  0.69503056  0.23222946  0.93707108    -0.05800
Br572      Br  0.60499304  0.01708348  0.00740898    -0.00200
Br573      Br  0.80934920  0.34185344  0.03686992     0.00300
Br574      Br  0.78224904  0.15081675  0.95573220    -0.04100
Br575      Br  0.57496180  0.14409653  0.92855121     0.00400
Br576      Br  0.71423055  0.11190638  0.02572663    -0.03400
Br577      Br  0.69592688  0.24937829  0.02027801    -0.04300
Br578      Br  0.88845280  0.22106672  0.99145532    -0.00300
C579        C  0.49601071  0.40671324  0.98430449     0.01100
C580        C  0.48346470  0.37898378  0.01045353     0.03900
C581        C  0.47051465  0.32858009  0.01041562    -0.12100
C582        C  0.47202524  0.30547157  0.98459799     0.23200
C583        C  0.48320299  0.33210341  0.95829072    -0.12700
C584        C  0.49487389  0.38270573  0.95811004     0.04600
C585        C  0.46397074  0.25390505  0.98631062     0.27100
C586        C  0.50503323  0.24683385  0.99093821    -0.13400
C587        C  0.49719543  0.19907092  0.99819290     0.05200
C588        C  0.44805807  0.15807080  0.00104560    -0.09400
C589        C  0.40703700  0.16564503  0.99665163     0.06000
C590        C  0.41503841  0.21310174  0.98895645    -0.13700
Br591      Br  0.48457697  0.29965955  0.92296662    -0.05800
Br592      Br  0.48739027  0.40998451  0.04742359    -0.00200
Br593      Br  0.55404004  0.19034279  0.00345898     0.00300
Br594      Br  0.35890502  0.22313772  0.98328669    -0.04100
Br595      Br  0.51383294  0.42034404  0.92264614     0.00400
Br596      Br  0.45289155  0.29132479  0.04630901    -0.03400
Br597      Br  0.57211359  0.30329918  0.98798992    -0.04300
Br598      Br  0.33923129  0.11167320  0.00274384    -0.00300
C599        C  0.55879011  0.71315477  0.99731479     0.01100
C600        C  0.50951131  0.70468524  0.99596673     0.03900
C601        C  0.49990862  0.74352765  0.00287660    -0.12100
C602        C  0.53952017  0.79171032  0.00997543     0.23200
C603        C  0.58886644  0.80087524  0.01021492    -0.12700
C604        C  0.59857610  0.76191738  0.00393173     0.04600
C605        C  0.52994169  0.83425911  0.01184385     0.27100
C606        C  0.52334947  0.85382902  0.98601498    -0.13400
C607        C  0.50870116  0.88997510  0.98675550     0.05200
C608        C  0.50144665  0.90814169  0.01355824    -0.09400
C609        C  0.51165427  0.89111666  0.03945700     0.06000
C610        C  0.52564253  0.85395536  0.03860322    -0.13700
Br611      Br  0.64331576  0.86762795  0.01804771    -0.05800
Br612      Br  0.45463101  0.64050882  0.98435832    -0.00200
Br613      Br  0.49809979  0.91316427  0.95018535     0.00300
Br614      Br  0.53762630  0.82889732  0.07390806    -0.04100
Br615      Br  0.66726802  0.77707516  0.00225368     0.00400
Br616      Br  0.43227408  0.73132069  0.00190695    -0.03400
Br617      Br  0.53310465  0.82955151  0.94929026    -0.04300
Br618      Br  0.50376566  0.91639918  0.07591760    -0.00300
C619        C  0.37424953  0.01081536  0.90389516     0.01100
C620        C  0.33550866  0.97134762  0.88812192     0.03900
C621        C  0.32865592  0.97802073  0.85875609    -0.12100
C622        C  0.35981983  0.02446497  0.84529491     0.23200
C623        C  0.39708295  0.06450376  0.86140131    -0.12700
C624        C  0.40363688  0.05790613  0.89077126     0.04600
C625        C  0.35202896  0.03213634  0.81456310     0.27100
C626        C  0.37924255  0.02464610  0.79256423    -0.13400
C627        C  0.37297762  0.03369757  0.76350104     0.05200
C628        C  0.33977103  0.05075170  0.75643033    -0.09400
C629        C  0.31213244  0.05767454  0.77852901     0.06000
C630        C  0.31838307  0.04849253  0.80749657    -0.13700
Br631      Br  0.43960819  0.12811296  0.84296073    -0.05800
Br632      Br  0.29184849  0.90818552  0.90662645    -0.00200
Br633      Br  0.41181896  0.02513956  0.73369747     0.00300
Br634      Br  0.28158652  0.05918868  0.83776149    -0.04100
Br635      Br  0.44990902  0.11432305  0.91372413     0.00400
Br636      Br  0.27750531  0.92333042  0.83664706    -0.03400
Br637      Br  0.42617409  0.00342183  0.80253120    -0.04300
Br638      Br  0.26424583  0.07818111  0.76921587    -0.00300
C639        C  0.48661096  0.11960862  0.65957765     0.01100
C640        C  0.50785246  0.14248010  0.68637063     0.03900
C641        C  0.55520261  0.15066780  0.69469533    -0.12100
C642        C  0.58309089  0.13788494  0.67593729     0.23200
C643        C  0.56221614  0.11539060  0.64903416    -0.12700
C644        C  0.51366046  0.10502424  0.64126278     0.04600
C645        C  0.63609082  0.15292036  0.68323628     0.27100
C646        C  0.67373830  0.20335547  0.68020433    -0.13400
C647        C  0.72398919  0.21788155  0.68537444     0.05200
C648        C  0.73828866  0.18165467  0.69091478    -0.09400
C649        C  0.70028028  0.13247281  0.69771886     0.06000
C650        C  0.64927169  0.11811995  0.69378640    -0.13700
Br651      Br  0.60077095  0.09972016  0.62259876    -0.05800
Br652      Br  0.47223088  0.16341752  0.71186203    -0.00200
Br653      Br  0.77315083  0.28831878  0.68579257     0.00300
Br654      Br  0.59746845  0.05073992  0.70233582    -0.04100
Br655      Br  0.48295617  0.06785183  0.60656589    -0.00500
Br656      Br  0.58234080  0.17993152  0.73190402    -0.03400
Br657      Br  0.65683670  0.25253813  0.66739517    -0.04300
Br658      Br  0.71768210  0.08554150  0.71326938    -0.00300
C659        C  0.23973528  0.17397680  0.63833731     0.01100
C660        C  0.24762382  0.21833428  0.65213601     0.03900
C661        C  0.20770402  0.22778661  0.65577664    -0.12100
C662        C  0.15890203  0.19170630  0.64726470     0.23200
C663        C  0.15145476  0.14870009  0.63221100    -0.12700
C664        C  0.19198377  0.14083658  0.62697878     0.04600
C665        C  0.11564052  0.19938726  0.65358075     0.27100
C666        C  0.09200504  0.18767181  0.68093105    -0.13400
C667        C  0.05139671  0.19554554  0.68679838     0.05200
C668        C  0.03387563  0.21535598  0.66513995    -0.09400
C669        C  0.05573252  0.22318757  0.63701698     0.06000
C670        C  0.09726005  0.21715362  0.63176625    -0.13700
Br671      Br  0.08499577  0.09890909  0.62041801    -0.05800
Br672      Br  0.31154594  0.26411740  0.66874960    -0.00200
Br673      Br  0.02046184  0.17839216  0.72449627     0.00300
Br674      Br  0.13007124  0.23420490  0.59446422    -0.04100
Br675      Br  0.18205105  0.08301704  0.60542049     0.00400
Br676      Br  0.21919029  0.28940519  0.67340200    -0.03400
Br677      Br  0.11612842  0.16125397  0.71046384    -0.04300
Br678      Br  0.02675756  0.23708400  0.60390806    -0.00300
C679        C  0.17548020  0.96344649  0.67423128     0.01100
C680        C  0.16723458  0.91422207  0.67182702     0.03900
C681        C  0.11959405  0.87420259  0.66480126    -0.12100
C682        C  0.08008767  0.88317307  0.65934441     0.23200
C683        C  0.08786956  0.93205797  0.66240496    -0.12700
C684        C  0.13498713  0.97178769  0.67080643     0.04600
C685        C  0.02831126  0.84028549  0.65672961     0.27100
C686        C  0.00716374  0.81832253  0.62979559    -0.13400
C687        C  0.95618955  0.78055896  0.62808371     0.05200
C688        C  0.92692743  0.76399594  0.65340320    -0.09400
C689        C  0.94948491  0.78476723  0.68052366     0.06000
C690        C  0.99954253  0.82284129  0.68201537    -0.13700
Br691      Br  0.03307105  0.94390024  0.65592066    -0.05800
Br692      Br  0.22076666  0.90105970  0.67996552    -0.00200
Br693      Br  0.92524173  0.75509016  0.59115255     0.00300
Br694      Br  0.02853548  0.85348787  0.71887616    -0.04100
Br695      Br  0.14296168  0.03667309  0.67856378     0.00400
Br696      Br  0.10763067  0.80659800  0.66400234    -0.03400
Br697      Br  0.04758351  0.84154119  0.59536270    -0.04300
Br698      Br  0.91235165  0.76332060  0.71645939    -0.00300
C699        C  0.62269842  0.51724889  0.66419499     0.01100
C700        C  0.63073935  0.47611267  0.66402314     0.03900
C701        C  0.59192577  0.42840706  0.67237441    -0.12100
C702        C  0.54439617  0.42105977  0.67959994     0.23200
C703        C  0.53593909  0.46167285  0.67911336    -0.12700
C704        C  0.57460718  0.50940102  0.67101447     0.04600
C705        C  0.50120410  0.36942657  0.68130151     0.27100
C706        C  0.47714522  0.34608788  0.65545738    -0.13400
C707        C  0.43994912  0.29553126  0.65548466     0.05200
C708        C  0.42489472  0.26799564  0.68168620    -0.09400
C709        C  0.44664541  0.29243400  0.70790804     0.06000
C710        C  0.48550769  0.34304139  0.70764703    -0.13700
Br711      Br  0.47066972  0.45126082  0.68886094    -0.05800
Br712      Br  0.69385326  0.48385638  0.65168715    -0.00200
Br713      Br  0.41170274  0.26451768  0.61875589     0.00300
Br714      Br  0.51924042  0.37572592  0.74284406    -0.04100
Br715      Br  0.55994570  0.56298504  0.66674367     0.00400
Br716      Br  0.60333798  0.37250264  0.67384472    -0.03400
Br717      Br  0.49720085  0.38329471  0.61953274    -0.04300
Br718      Br  0.42561562  0.25580754  0.74366367    -0.00300
C719        C  0.31353836  0.03491379  0.57052099     0.01100
C720        C  0.26484839  0.99734159  0.56271655     0.03900
C721        C  0.25433936  0.98022072  0.53386930    -0.12100
C722        C  0.29291097  0.99917058  0.51298549     0.23200
C723        C  0.34153077  0.03658192  0.52087698    -0.12700
C724        C  0.35139064  0.05543784  0.54928566     0.04600
C725        C  0.28274090  0.98071419  0.48257380     0.27100
C726        C  0.28172336  0.93599469  0.47499627    -0.13400
C727        C  0.27466259  0.91993984  0.44597658     0.05200
C728        C  0.27101118  0.94976018  0.42410864    -0.09400
C729        C  0.27319966  0.99506774  0.43164704     0.06000
C730        C  0.27730349  0.00957015  0.46088103    -0.13700
Br731      Br  0.39463230  0.06219702  0.49254871    -0.05800
Br732      Br  0.21215368  0.97074542  0.59124533    -0.00200
Br733      Br  0.27185404  0.85778140  0.43609487     0.00300
Br734      Br  0.27450451  0.06853108  0.47146859    -0.04100
Br735      Br  0.41625558  0.11121065  0.55875669     0.00400
Br736      Br  0.18684763  0.93240001  0.52256713    -0.03400
Br737      Br  0.29119319  0.89740200  0.50439199    -0.04300
Br738      Br  0.27039609  0.03732353  0.40209296    -0.00300
loop_ 
_geom_bond_atom_site_label_1 
_geom_bond_atom_site_label_2 
_geom_bond_distance 
_geom_bond_site_symmetry_2 
_ccdc_geom_bond_type 
O1          Cr19   1.947       .  S
O1            C9   1.257       .  A
O2          Cr19   2.029       .  S
O2            C3   1.269       .  A
C3            O4   1.255       .  A
C3          C719   1.481       .  S
O4          Cr20   1.971       .  S
O5          Cr20   2.073       .  S
O5            C6   1.277       .  A
C6            O7   1.249       .  A
C6          C659   1.489       .  S
O7          Cr21   1.941       .  S
O8          Cr21   2.046       .  S
O8            C9   1.277       .  A
C9          C679   1.480   1_545  S
O10         Cr19   2.025       .  S
O10          C18   1.268       .  A
O11         Cr19   1.955       .  S
O11          C12   1.256       .  A
C12          O13   1.281       .  A
C12         C639   1.494       .  S
O13         Cr20   2.061       .  S
O14         Cr20   1.940       .  S
O14          C15   1.246       .  A
C15          O16   1.273       .  A
C15         C708   1.481       .  S
O16         Cr21   2.055       .  S
O17         Cr21   1.964       .  S
O17          C18   1.257       .  A
C18         C628   1.477       .  S
Cr19         O22   1.765       .  S
Cr20         O22   1.759       .  S
Cr21         O22   1.768       .  S
O23         Cr41   1.944   1_564  S
O23          C31   1.252   1_554  A
O24         Cr41   2.019   1_554  S
O24          C25   1.268       .  A
C25          O26   1.258   1_545  A
C25         C528   1.493   1_545  S
O26         Cr42   1.971   1_565  S
O27         Cr42   2.068   1_565  S
O27          C28   1.278       .  A
C28          O29   1.243   1_554  A
C28         C608   1.490       .  S
O29         Cr43   1.939       .  S
O30         Cr43   2.068       .  S
O30          C31   1.282       .  A
C31         C539   1.524       .  S
O32         Cr41   2.017   1_565  S
O32          C40   1.265   1_565  A
O33         Cr41   1.945       .  S
O33          C34   1.256   1_556  A
C34          O35   1.280       .  A
C34         C588   1.486       .  S
O35         Cr42   2.053       .  S
O36         Cr42   1.954   1_556  S
O36          C37   1.249       .  A
C37          O38   1.280       .  A
C37         C559   1.502       .  S
O38         Cr43   2.090   1_545  S
O39         Cr43   1.974   1_545  S
O39          C40   1.258       .  A
C40         C619   1.476       .  S
Cr41         O44   1.758       .  S
Cr42         O44   1.766   1_554  S
Cr43         O44   1.753   1_565  S
O45         Cr63   1.966       .  S
O45          C53   1.261       .  A
O46         Cr63   2.046       .  S
O46          C47   1.271       .  A
C47          O48   1.252       .  A
C47         C519   1.496       .  S
O48         Cr64   1.960       .  S
O49         Cr64   2.072       .  S
O49          C50   1.277       .  A
C50          O51   1.246       .  A
C50         C508   1.489       .  S
O51         Cr65   1.940       .  S
O52         Cr65   2.048       .  S
O52          C53   1.278       .  A
C53         C448   1.499       .  S
O54         Cr63   2.036       .  S
O54          C62   1.272       .  A
O55         Cr63   1.957       .  S
O55          C56   1.257       .  A
C56          O57   1.282       .  A
C56         C488   1.494   1_565  S
O57         Cr64   2.062       .  S
O58         Cr64   1.929       .  S
O58          C59   1.244       .  A
C59          O60   1.277       .  A
C59         C468   1.488       .  S
O60         Cr65   2.072       .  S
O61         Cr65   1.966       .  S
O61          C62   1.257       .  A
C62         C728   1.482       .  S
Cr63         O66   1.764       .  S
Cr64         O66   1.754       .  S
Cr65         O66   1.763       .  S
O67         Cr85   1.948       .  S
O67          C75   1.258       .  A
O68         Cr85   2.027       .  S
O68          C69   1.270       .  A
C69          O70   1.259       .  A
C69         C359   1.481       .  S
O70         Cr86   1.967       .  S
O71         Cr86   2.091       .  S
O71          C72   1.281       .  A
C72          O73   1.247       .  A
C72         C399   1.494       .  S
O73         Cr87   1.938       .  S
O74         Cr87   2.044       .  S
O74          C75   1.277       .  A
C75         C699   1.481       .  S
O76         Cr85   2.024       .  S
O76          C84   1.269       .  A
O77         Cr85   1.958       .  S
O77          C78   1.258       .  A
C78          O79   1.278       .  A
C78         C379   1.492       .  S
O79         Cr86   2.048       .  S
O80         Cr86   1.932       .  S
O80          C81   1.237       .  A
C81          O82   1.276       .  A
C81         C688   1.484       .  S
O82         Cr87   2.075       .  S
O83         Cr87   1.963       .  S
O83          C84   1.258       .  A
C84         C419   1.477       .  S
Cr85         O88   1.754       .  S
Cr86         O88   1.748       .  S
Cr87         O88   1.763       .  S
O89        Cr107   1.962   1_556  S
O89          C97   1.259   1_556  A
O90        Cr107   2.016   1_556  S
O90          C91   1.265       .  A
C91          O92   1.257       .  A
C91         C368   1.470       .  S
O92        Cr108   1.967       .  S
O93        Cr108   2.064       .  S
O93          C94   1.275       .  A
C94          O95   1.243   1_556  A
C94         C579   1.484       .  S
O95        Cr109   1.937       .  S
O96        Cr109   2.049       .  S
O96          C97   1.278       .  A
C97         C319   1.493       .  S
O98        Cr107   2.015       .  S
O98         C106   1.266       .  A
O99        Cr107   1.953       .  S
O99         C100   1.257   1_554  A
C100        O101   1.277       .  A
C100        C599   1.489       .  S
O101       Cr108   2.044       .  S
O102       Cr108   1.937   1_554  S
O102        C103   1.248       .  A
C103        O104   1.276       .  A
C103        C339   1.487       .  S
O104       Cr109   2.072       .  S
O105       Cr109   1.965       .  S
O105        C106   1.257       .  A
C106        C308   1.469       .  S
Cr107       O110   1.760       .  S
Cr108       O110   1.764   1_556  S
Cr109       O110   1.756       .  S
O111       Cr129   1.946       .  S
O111        C119   1.251       .  A
O112       Cr129   2.020       .  S
O112        C113   1.267       .  A
C113        O114   1.253       .  A
C113        C299   1.464       .  S
O114       Cr130   1.958       .  S
O115       Cr130   2.077       .  S
O115        C116   1.281       .  A
C116        O117   1.245       .  A
C116        C439   1.492       .  S
O117       Cr131   1.941       .  S
O118       Cr131   2.081       .  S
O118        C119   1.284       .  A
C119        C268   1.522       .  S
O120       Cr129   2.029       .  S
O120        C128   1.268       .  A
O121       Cr129   1.949       .  S
O121        C122   1.257       .  A
C122        O123   1.283       .  A
C122        C459   1.492       .  S
O123       Cr130   2.067       .  S
O124       Cr130   1.936       .  S
O124        C125   1.246       .  A
C125        O126   1.280       .  A
C125        C288   1.492       .  S
O126       Cr131   2.088       .  S
O127       Cr131   1.962       .  S
O127        C128   1.254       .  A
C128        C428   1.472       .  S
Cr129       O132   1.752       .  S
Cr130       O132   1.757       .  S
Cr131       O132   1.753       .  S
O133       Cr151   1.934       .  S
O133        C141   1.246       .  A
O134       Cr151   2.024       .  S
O134        C135   1.266       .  A
C135        O136   1.249       .  A
C135        C228   1.493       .  S
O136       Cr152   1.959       .  S
O137       Cr152   2.063       .  S
O137        C138   1.278       .  A
C138        O139   1.251       .  A
C138        C648   1.504       .  S
O139       Cr153   1.935       .  S
O140       Cr153   2.077       .  S
O140        C141   1.291       .  A
C141        C408   1.523       .  S
O142       Cr151   2.033       .  S
O142        C150   1.265       .  A
O143       Cr151   1.948       .  S
O143        C144   1.260       .  A
C144        O145   1.284       .  A
C144        C668   1.512   1_655  S
O145       Cr152   2.062       .  S
O146       Cr152   1.936       .  S
O146        C147   1.248       .  A
C147        O148   1.279       .  A
C147        C388   1.499       .  S
O148       Cr153   2.072       .  S
O149       Cr153   1.970       .  S
O149        C150   1.253       .  A
C150        C239   1.497       .  S
Cr151       O154   1.776       .  S
Cr152       O154   1.768       .  S
Cr153       O154   1.764       .  S
O155       Cr173   1.947   1_554  S
O155        C163   1.254   1_554  A
O156       Cr173   2.042   1_654  S
O156        C157   1.276   1_655  A
C157        O158   1.256       .  A
C157        C199   1.497       .  S
O158       Cr174   1.946   1_455  S
O159       Cr174   2.096   1_455  S
O159        C160   1.283       .  A
C160        O161   1.246       .  A
C160        C548   1.499       .  S
O161       Cr175   1.933   1_554  S
O162       Cr175   2.059       .  S
O162        C163   1.282       .  A
C163        C348   1.519       .  S
O164       Cr173   2.037       .  S
O164        C172   1.272   1_455  A
O165       Cr173   1.966   1_655  S
O165        C166   1.258   1_556  A
C166        O167   1.276       .  A
C166        C568   1.508       .  S
O167       Cr174   2.053       .  S
O168       Cr174   1.943   1_556  S
O168        C169   1.241       .  A
C169        O170   1.278       .  A
C169        C328   1.494       .  S
O170       Cr175   2.086   1_655  S
O171       Cr175   1.962   1_655  S
O171        C172   1.255       .  A
C172        C219   1.493       .  S
Cr173       O176   1.759   1_556  S
Cr174       O176   1.751   1_655  S
Cr175       O176   1.760   1_556  S
O177       Cr195   2.001       .  S
O177        C185   1.266       .  A
O178       Cr195   1.991       .  S
O178        C179   1.255       .  A
C179        O180   1.251       .  A
C179        C248   1.479       .  S
O180       Cr196   1.983       .  S
O181       Cr196   2.037       .  S
O181        C182   1.274       .  A
C182        O183   1.262       .  A
C182        C479   1.497       .  S
O183       Cr197   1.995       .  S
O184       Cr197   2.009       .  S
O184        C185   1.273       .  A
C185        C279   1.507   1_455  S
O186       Cr195   1.977       .  S
O186        C194   1.255       .  A
O187       Cr195   2.012       .  S
O187        C188   1.271       .  A
C188        O189   1.276       .  A
C188        C499   1.508       .  S
O189       Cr196   2.023       .  S
O190       Cr196   1.974       .  S
O190        C191   1.254       .  A
C191        O192   1.271       .  A
C191        C259   1.493       .  S
O192       Cr197   2.042       .  S
O193       Cr197   1.983       .  S
O193        C194   1.254       .  A
C194        C208   1.488       .  S
Cr195       O198   1.784       .  S
Cr196       O198   1.785       .  S
Cr197       O198   1.781       .  S
C199        C200   1.420   1_455  A
C199        C204   1.424       .  A
C200        C201   1.413       .  A
C200       Br212   1.933       .  S
C201        C202   1.408   1_655  A
C201       Br216   1.930       .  S
C202        C205   1.488       .  S
C202        C203   1.405       .  A
C203        C204   1.406       .  A
C203       Br211   1.936       .  S
C204       Br215   1.935       .  S
C205        C206   1.409   1_455  A
C205        C210   1.407       .  A
C206        C207   1.411   1_655  A
C206       Br217   1.930       .  S
C207        C208   1.416       .  A
C207       Br213   1.932   1_455  S
C208        C209   1.416       .  A
C209        C210   1.407       .  A
C209       Br218   1.931       .  S
C210       Br214   1.933       .  S
C219        C220   1.421   1_655  A
C219        C224   1.416       .  A
C220        C221   1.407   1_455  A
C220       Br232   1.936       .  S
C221        C222   1.405       .  A
C221       Br236   1.931   1_655  S
C222        C225   1.487       .  S
C222        C223   1.407       .  A
C223        C224   1.410       .  A
C223       Br231   1.932       .  S
C224       Br235   1.921       .  S
C225        C226   1.406       .  A
C225        C230   1.407   1_655  A
C226        C227   1.410       .  A
C226       Br237   1.934       .  S
C227        C228   1.423       .  A
C227       Br233   1.936       .  S
C228        C229   1.417       .  A
C229        C230   1.409   1_655  A
C229       Br238   1.930   1_655  S
C230       Br234   1.931       .  S
C239        C240   1.419   1_655  A
C239        C244   1.421       .  A
C240        C241   1.413       .  A
C240       Br252   1.931       .  S
C241        C242   1.409   1_455  A
C241       Br256   1.930       .  S
C242        C245   1.489   1_655  S
C242        C243   1.405       .  A
C243        C244   1.408       .  A
C243       Br251   1.932       .  S
C244       Br255   1.935       .  S
C245        C246   1.411       .  A
C245        C250   1.408       .  A
C246        C247   1.412       .  A
C246       Br257   1.927   1_455  S
C247        C248   1.409       .  A
C247       Br253   1.929       .  S
C248        C249   1.409       .  A
C249        C250   1.406       .  A
C249       Br258   1.921       .  S
C250       Br254   1.931       .  S
C259        C260   1.410       .  A
C259        C264   1.411       .  A
C260        C261   1.410       .  A
C260       Br272   1.926       .  S
C261        C262   1.413       .  A
C261       Br276   1.931       .  S
C262        C265   1.507       .  S
C262        C263   1.416       .  A
C263        C264   1.419       .  A
C263       Br271   1.928       .  S
C264       Br275   1.922       .  S
C265        C266   1.413       .  A
C265        C270   1.404       .  A
C266        C267   1.422       .  A
C266       Br277   1.929       .  S
C267        C268   1.423       .  A
C267       Br273   1.929       .  S
C268        C269   1.436       .  A
C269        C270   1.412       .  A
C269       Br278   1.943       .  S
C270       Br274   1.938       .  S
C279        C280   1.426       .  A
C279        C284   1.420       .  A
C280        C281   1.410       .  A
C280       Br292   1.928       .  S
C281        C282   1.404       .  A
C281       Br296   1.935       .  S
C282        C285   1.498       .  S
C282        C283   1.412       .  A
C283        C284   1.416       .  A
C283       Br291   1.928       .  S
C284       Br295   1.932   1_655  S
C285        C286   1.410   1_545  A
C285        C290   1.409       .  A
C286        C287   1.415       .  A
C286       Br297   1.928   1_565  S
C287        C288   1.414       .  A
C287       Br293   1.924       .  S
C288        C289   1.416       .  A
C289        C290   1.412   1_565  A
C289       Br298   1.918       .  S
C290       Br294   1.934       .  S
C299        C300   1.408       .  A
C299        C304   1.408       .  A
C300        C301   1.404       .  A
C300       Br312   1.930       .  S
C301        C302   1.408       .  A
C301       Br316   1.930       .  S
C302        C305   1.476       .  S
C302        C303   1.409       .  A
C303        C304   1.404       .  A
C303       Br311   1.930       .  S
C304       Br315   1.931       .  S
C305        C306   1.408       .  A
C305        C310   1.407       .  A
C306        C307   1.405       .  A
C306       Br317   1.930       .  S
C307        C308   1.409       .  A
C307       Br313   1.925       .  S
C308        C309   1.410       .  A
C309        C310   1.404       .  A
C309       Br318   1.930       .  S
C310       Br314   1.931       .  S
C319        C320   1.414       .  A
C319        C324   1.417       .  A
C320        C321   1.413       .  A
C320       Br332   1.928       .  S
C321        C322   1.413   1_554  A
C321       Br336   1.932       .  S
C322        C325   1.495       .  S
C322        C323   1.408   1_556  A
C323        C324   1.411       .  A
C323       Br331   1.930       .  S
C324       Br335   1.932       .  S
C325        C326   1.403   1_556  A
C325        C330   1.415       .  A
C326        C327   1.403       .  A
C326       Br337   1.936       .  S
C327        C328   1.424   1_554  A
C327       Br333   1.935       .  S
C328        C329   1.411       .  A
C329        C330   1.420       .  A
C329       Br338   1.925       .  S
C330       Br334   1.927       .  S
C339        C340   1.412       .  A
C339        C344   1.413       .  A
C340        C341   1.413       .  A
C340       Br352   1.930       .  S
C341        C342   1.412       .  A
C341       Br356   1.927       .  S
C342        C345   1.499       .  S
C342        C343   1.411       .  A
C343        C344   1.412       .  A
C343       Br351   1.931   1_554  S
C344       Br355   1.923       .  S
C345        C346   1.400       .  A
C345        C350   1.412   1_554  A
C346        C347   1.409       .  A
C346       Br357   1.938       .  S
C347        C348   1.436   1_554  A
C347       Br353   1.937       .  S
C348        C349   1.423       .  A
C349        C350   1.421       .  A
C349       Br358   1.931       .  S
C350       Br354   1.930       .  S
C359        C360   1.414       .  A
C359        C364   1.412       .  A
C360        C361   1.406       .  A
C360       Br372   1.930       .  S
C361        C362   1.406       .  A
C361       Br376   1.931       .  S
C362        C365   1.482       .  S
C362        C363   1.409       .  A
C363        C364   1.409       .  A
C363       Br371   1.930       .  S
C364       Br375   1.927       .  S
C365        C366   1.410       .  A
C365        C370   1.408       .  A
C366        C367   1.405       .  A
C366       Br377   1.928       .  S
C367        C368   1.407       .  A
C367       Br373   1.931       .  S
C368        C369   1.412       .  A
C369        C370   1.406       .  A
C369       Br378   1.931       .  S
C370       Br374   1.930       .  S
C379        C380   1.415       .  A
C379        C384   1.410       .  A
C380        C381   1.409       .  A
C380       Br392   1.933       .  S
C381        C382   1.410       .  A
C381       Br396   1.930       .  S
C382        C385   1.504       .  S
C382        C383   1.417       .  A
C383        C384   1.418       .  A
C383       Br391   1.927       .  S
C384       Br395   1.928       .  S
C385        C386   1.409   1_565  A
C385        C390   1.415       .  A
C386        C387   1.410       .  A
C386       Br397   1.934   1_545  S
C387        C388   1.416       .  A
C387       Br393   1.921       .  S
C388        C389   1.413       .  A
C389        C390   1.421   1_545  A
C389       Br398   1.923       .  S
C390       Br394   1.927       .  S
C399        C400   1.416       .  A
C399        C404   1.415       .  A
C400        C401   1.414       .  A
C400       Br412   1.929       .  S
C401        C402   1.410       .  A
C401       Br416   1.929       .  S
C402        C405   1.500       .  S
C402        C403   1.410       .  A
C403        C404   1.414       .  A
C403       Br411   1.931       .  S
C404       Br415   1.919       .  S
C405        C406   1.400       .  A
C405        C410   1.411       .  A
C406        C407   1.410       .  A
C406       Br417   1.940       .  S
C407        C408   1.443       .  A
C407       Br413   1.943       .  S
C408        C409   1.423       .  A
C409        C410   1.421       .  A
C409       Br418   1.933       .  S
C410       Br414   1.929       .  S
C419        C420   1.414       .  A
C419        C424   1.411       .  A
C420        C421   1.405       .  A
C420       Br432   1.933       .  S
C421        C422   1.407       .  A
C421       Br436   1.932       .  S
C422        C425   1.483       .  S
C422        C423   1.410       .  A
C423        C424   1.409       .  A
C423       Br431   1.928       .  S
C424       Br435   1.930       .  S
C425        C426   1.410       .  A
C425        C430   1.409       .  A
C426        C427   1.405       .  A
C426       Br437   1.931       .  S
C427        C428   1.408       .  A
C427       Br433   1.928       .  S
C428        C429   1.410       .  A
C429        C430   1.408       .  A
C429       Br438   1.929       .  S
C430       Br434   1.929       .  S
C439        C440   1.411       .  A
C439        C444   1.422       .  A
C440        C441   1.419       .  A
C440       Br452   1.925       .  S
C441        C442   1.413       .  A
C441       Br456   1.925       .  S
C442        C445   1.494       .  S
C442        C443   1.403       .  A
C443        C444   1.404       .  A
C443       Br451   1.937       .  S
C444       Br455   1.929       .  S
C445        C446   1.406       .  A
C445        C450   1.411       .  A
C446        C447   1.411       .  A
C446       Br457   1.931       .  S
C447        C448   1.421       .  A
C447       Br453   1.932       .  S
C448        C449   1.419       .  A
C449        C450   1.413       .  A
C449       Br458   1.929       .  S
C450       Br454   1.932       .  S
C459        C460   1.417       .  A
C459        C464   1.412       .  A
C460        C461   1.409       .  A
C460       Br472   1.933       .  S
C461        C462   1.408       .  A
C461       Br476   1.931       .  S
C462        C465   1.495       .  S
C462        C463   1.413       .  A
C463        C464   1.416       .  A
C463       Br471   1.930       .  S
C464       Br475   1.924       .  S
C465        C466   1.416       .  A
C465        C470   1.405       .  A
C466        C467   1.419   1_655  A
C466       Br477   1.924       .  S
C467        C468   1.409       .  A
C467       Br473   1.925       .  S
C468        C469   1.418       .  A
C469        C470   1.403   1_455  A
C469       Br478   1.931       .  S
C470       Br474   1.935       .  S
C479        C480   1.410       .  A
C479        C484   1.408       .  A
C480        C481   1.412       .  A
C480       Br492   1.910       .  S
C481        C482   1.411       .  A
C481       Br496   1.931       .  S
C482        C485   1.506       .  S
C482        C483   1.415       .  A
C483        C484   1.417       .  A
C483       Br491   1.925       .  S
C484       Br495   1.921       .  S
C485        C486   1.411       .  A
C485        C490   1.416       .  A
C486        C487   1.414       .  A
C486       Br497   1.931       .  S
C487        C488   1.416       .  A
C487       Br493   1.930   1_545  S
C488        C489   1.409       .  A
C489        C490   1.417       .  A
C489       Br498   1.926       .  S
C490       Br494   1.929       .  S
C499        C500   1.422       .  A
C499        C504   1.415       .  A
C500        C501   1.410       .  A
C500       Br512   1.917       .  S
C501        C502   1.403       .  A
C501       Br516   1.936       .  S
C502        C505   1.501       .  S
C502        C503   1.413       .  A
C503        C504   1.420       .  A
C503       Br511   1.926       .  S
C504       Br515   1.927       .  S
C505        C506   1.412       .  A
C505        C510   1.410       .  A
C506        C507   1.416       .  A
C506       Br517   1.928       .  S
C507        C508   1.416       .  A
C507       Br513   1.930       .  S
C508        C509   1.413       .  A
C509        C510   1.412       .  A
C509       Br518   1.924       .  S
C510       Br514   1.931       .  S
C519        C520   1.415       .  A
C519        C524   1.422       .  A
C520        C521   1.413       .  A
C520       Br532   1.926   1_565  S
C521        C522   1.409       .  A
C521       Br536   1.930   1_565  S
C522        C525   1.490       .  S
C522        C523   1.405       .  A
C523        C524   1.409       .  A
C523       Br531   1.933       .  S
C524       Br535   1.935       .  S
C525        C526   1.408   1_565  A
C525        C530   1.407       .  A
C526        C527   1.411       .  A
C526       Br537   1.930       .  S
C527        C528   1.418   1_545  A
C527       Br533   1.932       .  S
C528        C529   1.418       .  A
C529        C530   1.409       .  A
C529       Br538   1.932       .  S
C530       Br534   1.931       .  S
C539        C540   1.440   1_556  A
C539        C544   1.425       .  A
C540        C541   1.412       .  A
C540       Br552   1.942       .  S
C541        C542   1.401       .  A
C541       Br556   1.937       .  S
C542        C545   1.503       .  S
C542        C543   1.411   1_554  A
C543        C544   1.420       .  A
C543       Br551   1.930       .  S
C544       Br555   1.931       .  S
C545        C546   1.408       .  A
C545        C550   1.413       .  A
C546        C547   1.412       .  A
C546       Br557   1.932       .  S
C547        C548   1.421       .  A
C547       Br553   1.931       .  S
C548        C549   1.415       .  A
C549        C550   1.417       .  A
C549       Br558   1.922       .  S
C550       Br554   1.930       .  S
C559        C560   1.416       .  A
C559        C564   1.416       .  A
C560        C561   1.411       .  A
C560       Br572   1.913   1_556  S
C561        C562   1.408       .  A
C561       Br576   1.935   1_556  S
C562        C565   1.504       .  S
C562        C563   1.413       .  A
C563        C564   1.420       .  A
C563       Br571   1.928       .  S
C564       Br575   1.921       .  S
C565        C566   1.414   1_556  A
C565        C570   1.408       .  A
C566        C567   1.419       .  A
C566       Br577   1.928       .  S
C567        C568   1.418       .  A
C567       Br573   1.929       .  S
C568        C569   1.419   1_554  A
C569        C570   1.409       .  A
C569       Br578   1.931       .  S
C570       Br574   1.932       .  S
C579        C580   1.420   1_556  A
C579        C584   1.411       .  A
C580        C581   1.400       .  A
C580       Br592   1.932       .  S
C581        C582   1.403   1_554  A
C581       Br596   1.938       .  S
C582        C585   1.486       .  S
C582        C583   1.413       .  A
C583        C584   1.417       .  A
C583       Br591   1.926       .  S
C584       Br595   1.926       .  S
C585        C586   1.411       .  A
C585        C590   1.406       .  A
C586        C587   1.412       .  A
C586       Br597   1.931       .  S
C587        C588   1.413   1_556  A
C587       Br593   1.926   1_556  S
C588        C589   1.418   1_554  A
C589        C590   1.406       .  A
C589       Br598   1.935   1_556  S
C590       Br594   1.931       .  S
C599        C600   1.413       .  A
C599        C604   1.419   1_556  A
C600        C601   1.409   1_556  A
C600       Br612   1.929       .  S
C601        C602   1.412       .  A
C601       Br616   1.932       .  S
C602        C605   1.488       .  S
C602        C603   1.406       .  A
C603        C604   1.409       .  A
C603       Br611   1.931       .  S
C604       Br615   1.935       .  S
C605        C606   1.403   1_554  A
C605        C610   1.413       .  A
C606        C607   1.401       .  A
C606       Br617   1.938       .  S
C607        C608   1.423   1_556  A
C607       Br613   1.933       .  S
C608        C609   1.410       .  A
C609        C610   1.417       .  A
C609       Br618   1.923       .  S
C610       Br614   1.926       .  S
C619        C620   1.410   1_545  A
C619        C624   1.408       .  A
C620        C621   1.408       .  A
C620       Br632   1.928       .  S
C621        C622   1.409   1_565  A
C621       Br636   1.929       .  S
C622        C625   1.483       .  S
C622        C623   1.408       .  A
C623        C624   1.406       .  A
C623       Br631   1.929       .  S
C624       Br635   1.926       .  S
C625        C626   1.409       .  A
C625        C630   1.407       .  A
C626        C627   1.409       .  A
C626       Br637   1.929       .  S
C627        C628   1.411       .  A
C627       Br633   1.929       .  S
C628        C629   1.414       .  A
C629        C630   1.406       .  A
C629       Br638   1.933       .  S
C630       Br634   1.931       .  S
C639        C640   1.416       .  A
C639        C644   1.412       .  A
C640        C641   1.411       .  A
C640       Br652   1.930       .  S
C641        C642   1.410       .  A
C641       Br656   1.931       .  S
C642        C645   1.503       .  S
C642        C643   1.415       .  A
C643        C644   1.418       .  A
C643       Br651   1.928       .  S
C644       Br655   1.925       .  S
C645        C646   1.407       .  A
C645        C650   1.417       .  A
C646        C647   1.406       .  A
C646       Br657   1.935       .  S
C647        C648   1.420       .  A
C647       Br653   1.929       .  S
C648        C649   1.412       .  A
C649        C650   1.421       .  A
C649       Br658   1.925       .  S
C650       Br654   1.925       .  S
C659        C660   1.416       .  A
C659        C664   1.411       .  A
C660        C661   1.415       .  A
C660       Br672   1.923       .  S
C661        C662   1.410       .  A
C661       Br676   1.931       .  S
C662        C665   1.500       .  S
C662        C663   1.411       .  A
C663        C664   1.412       .  A
C663       Br671   1.928       .  S
C664       Br675   1.929       .  S
C665        C666   1.413       .  A
C665        C670   1.403       .  A
C666        C667   1.420       .  A
C666       Br677   1.929       .  S
C667        C668   1.420       .  A
C667       Br673   1.929       .  S
C668        C669   1.428       .  A
C669        C670   1.408       .  A
C669       Br678   1.934       .  S
C670       Br674   1.934       .  S
C679        C680   1.414       .  A
C679        C684   1.410       .  A
C680        C681   1.406       .  A
C680       Br692   1.933       .  S
C681        C682   1.407       .  A
C681       Br696   1.930       .  S
C682        C685   1.484       .  S
C682        C683   1.412       .  A
C683        C684   1.409       .  A
C683       Br691   1.931       .  S
C684       Br695   1.926   1_565  S
C685        C686   1.414       .  A
C685        C690   1.402   1_455  A
C686        C687   1.416   1_455  A
C686       Br697   1.925       .  S
C687        C688   1.408       .  A
C687       Br693   1.925       .  S
C688        C689   1.424       .  A
C689        C690   1.399       .  A
C689       Br698   1.936       .  S
C690       Br694   1.939   1_655  S
C699        C700   1.413       .  A
C699        C704   1.417       .  A
C700        C701   1.409       .  A
C700       Br712   1.929       .  S
C701        C702   1.410       .  A
C701       Br716   1.931       .  S
C702        C705   1.481       .  S
C702        C703   1.405       .  A
C703        C704   1.404       .  A
C703       Br711   1.930       .  S
C704       Br715   1.935       .  S
C705        C706   1.403       .  A
C705        C710   1.411       .  A
C706        C707   1.399       .  A
C706       Br717   1.938       .  S
C707        C708   1.419       .  A
C707       Br713   1.932       .  S
C708        C709   1.409       .  A
C709        C710   1.414       .  A
C709       Br718   1.925       .  S
C710       Br714   1.926       .  S
C719        C720   1.411   1_545  A
C719        C724   1.410       .  A
C720        C721   1.412       .  A
C720       Br732   1.928       .  S
C721        C722   1.411       .  A
C721       Br736   1.929       .  S
C722        C725   1.491       .  S
C722        C723   1.410   1_565  A
C723        C724   1.408       .  A
C723       Br731   1.930       .  S
C724       Br735   1.928       .  S
C725        C726   1.409       .  A
C725        C730   1.411   1_565  A
C726        C727   1.410       .  A
C726       Br737   1.930       .  S
C727        C728   1.414       .  A
C727       Br733   1.932       .  S
C728        C729   1.410       .  A
C729        C730   1.410   1_565  A
C729       Br738   1.926   1_565  S
C730       Br734   1.929       .  S
