geometry optimzed in LAMMPS
_audit_creation_date              2020-11-30 
_audit_creation_method            'lammps2cif' 
_symmetry_space_group_name_H-M    'P1' 
_symmetry_Int_Tables_number       1 
_symmetry_cell_setting            triclinic 
loop_ 
_symmetry_equiv_pos_as_xyz 
  x,y,z 
_cell_length_a                    38.89887198 
_cell_length_b                    27.955730701401468 
_cell_length_c                    26.649460511776923 
_cell_angle_alpha                 87.72343950424425 
_cell_angle_beta                  89.82438604625372 
_cell_angle_gamma                 87.79203684050792 
loop_ 
_atom_site_label 
_atom_site_type_symbol 
_atom_site_fract_x 
_atom_site_fract_y 
_atom_site_fract_z 
_atom_site_charge 
C1          C  0.09149479  0.13372902  0.33290690     0.02200
C2          C  0.09306882  0.18540776  0.33723911     0.02200
C3          C  0.12101726  0.20344655  0.36369551    -0.18300
C4          C  0.14495685  0.17330154  0.38932504     0.02200
C5          C  0.14344758  0.12353029  0.38420032     0.02200
C6          C  0.11829826  0.10477866  0.35461569    -0.18300
H7          H  0.11809358  0.06608364  0.35221268     0.04200
H8          H  0.12263041  0.24170726  0.36823738     0.04200
O9          O  0.98393511  0.50962010  0.24000621    -0.71800
O10         O  0.05248089  0.10059537  0.27225410    -0.72100
O11         O  0.05306462  0.50613963  0.24269566    -0.71900
O12         O  0.98390002  0.10437154  0.26946199    -0.71900
O13         O  0.98291908  0.07785412  0.34692595    -0.71900
O14         O  0.05170930  0.47925825  0.32004164    -0.71900
O15         O  0.05067912  0.07352007  0.34948706    -0.71900
O16         O  0.98312577  0.48289643  0.31739947    -0.72000
V17         V  0.01826682  0.05438333  0.25754023     1.35200
V18         V  0.01702488  0.52907870  0.33185758     1.35200
C19         C  0.97297976  0.47915333  0.27258168     0.77400
C20         C  0.06224302  0.10375880  0.31739195     0.77400
C21         C  0.06364697  0.47511946  0.27603088     0.77300
C22         C  0.97317661  0.10960438  0.31393092     0.77300
O23         O  0.05455305  0.32709765  0.25045494    -0.71800
O24         O  0.98586361  0.23600633  0.28616520    -0.72100
O25         O  0.98640256  0.33285962  0.25581562    -0.71900
O26         O  0.05367619  0.23051554  0.28050393    -0.71900
O27         O  0.05803662  0.25421966  0.35662068    -0.71900
O28         O  0.98765406  0.35219091  0.33374726    -0.71900
O29         O  0.99047665  0.25606455  0.36346008    -0.71900
O30         O  0.05599572  0.35059107  0.32695397    -0.72000
V31         V  0.02013346  0.28241125  0.26955983     1.35200
V32         V  0.02302680  0.30272493  0.34369617     1.35200
C33         C  0.06580472  0.35593590  0.28179815     0.77400
C34         C  0.97821038  0.22823353  0.33202053     0.77400
C35         C  0.97610401  0.36070930  0.28981904     0.77300
C36         C  0.06620262  0.22364863  0.32406543     0.77300
C37         C  0.09313612  0.44069975  0.26386457     0.02200
C38         C  0.09405658  0.38861809  0.26642640     0.02200
C39         C  0.12331689  0.36376989  0.24732510    -0.18300
C40         C  0.15025548  0.38752136  0.22364036     0.02200
C41         C  0.14929442  0.43809526  0.22068632     0.02200
C42         C  0.12170159  0.46366552  0.24221530    -0.18300
H43         H  0.12148878  0.50249041  0.23886087     0.04200
H44         H  0.12416125  0.32489899  0.24774560     0.04200
C45         C  0.75673051  0.20893274  0.12299251     0.86400
C46         C  0.73246142  0.24538431  0.09600041    -0.53800
C47         C  0.74725367  0.27760106  0.06497332     0.09300
C48         C  0.78762708  0.27554035  0.07054948     0.20300
C49         C  0.78140091  0.18972423  0.08227147    -0.54500
C50         C  0.79912638  0.22434689  0.05569132     0.09400
C51         C  0.77882199  0.24022065  0.15416112    -0.54100
C52         C  0.79542452  0.27472307  0.12776229     0.10000
H53         H  0.70461852  0.24306756  0.09711456     0.14500
H54         H  0.80073994  0.30574263  0.05206391     0.00300
H55         H  0.78436817  0.15197568  0.07538914     0.14800
H56         H  0.78112440  0.23732870  0.19432514     0.14600
C57         C  0.79436612  0.02798340  0.99214698     0.86400
C58         C  0.77421417  0.99713419  0.45906275    -0.53800
C59         C  0.75409141  0.46581619  0.98314299     0.09300
C60         C  0.75742585  0.46546106  0.04179214     0.20300
C61         C  0.76667669  0.05079507  0.02812088    -0.54500
C62         C  0.74708509  0.01745458  0.05501569     0.09400
C63         C  0.81475047  0.99452917  0.02835877    -0.54100
C64         C  0.79678726  0.46104818  0.05408664     0.10000
H65         H  0.77370685  0.00250023  0.41839146     0.14500
H66         H  0.74233337  0.43782944  0.06181828     0.00300
H67         H  0.76388974  0.08893231  0.03297109     0.14800
H68         H  0.84166590  0.00021445  0.03633050     0.14600
C69         C  0.65403155  0.11087799  0.23405194     0.02200
C70         C  0.65290893  0.06198356  0.22274553     0.02200
C71         C  0.62562551  0.03588515  0.24325996    -0.18300
C72         C  0.59761302  0.05813900  0.26906806     0.02200
C73         C  0.59881131  0.10897998  0.27804710     0.02200
C74         C  0.62829761  0.13283212  0.26251546    -0.18300
H75         H  0.62976513  0.17097620  0.26818104     0.04200
H76         H  0.62515240  0.99796857  0.23626446     0.04200
C77         C  0.64258855  0.32545560  0.41357729     0.02200
C78         C  0.64896143  0.36767893  0.38500012     0.02200
C79         C  0.62716467  0.38207678  0.34546300    -0.18300
C80         C  0.59700769  0.35801128  0.33615372     0.02200
C81         C  0.59315929  0.31059641  0.35876523     0.02200
C82         C  0.61562672  0.29654854  0.39902355    -0.18300
H83         H  0.61273392  0.26227748  0.41871644     0.04200
H84         H  0.63114808  0.41656801  0.32653090     0.04200
C85         C  0.45308666  0.36492994  0.34716394     0.02200
C86         C  0.45288848  0.31278307  0.35106495     0.02200
C87         C  0.42524100  0.29125884  0.37712833    -0.18300
C88         C  0.40000919  0.31837877  0.40189478     0.02200
C89         C  0.40134743  0.36862747  0.39927809     0.02200
C90         C  0.42654566  0.39082968  0.37103047    -0.18300
H91         H  0.42614085  0.42975911  0.36972513     0.04200
H92         H  0.42408830  0.25253539  0.38024961     0.04200
C93         C  0.29259197  0.46531543  0.00627053     0.86400
C94         C  0.31671170  0.99807852  0.03289230    -0.53800
C95         C  0.30265479  0.03208928  0.06229205     0.09300
C96         C  0.26288604  0.03309504  0.05753975     0.20300
C97         C  0.26881173  0.44597113  0.04797774    -0.54500
C98         C  0.25262880  0.48151444  0.07454389     0.09400
C99         C  0.26863763  0.49867356  0.47622504    -0.54100
C100        C  0.25406131  0.03618147  0.00033641     0.10000
H101        H  0.34375818  0.98886528  0.03402190     0.14500
H102        H  0.25105286  0.06251900  0.07754518     0.00300
H103        H  0.26445002  0.40817753  0.05489321     0.14800
H104        H  0.25287914  0.98505098  0.44776738     0.14600
C105        C  0.39618109  0.07697172  0.22270015     0.02200
C106        C  0.39594784  0.12708687  0.22754459     0.02200
C107        C  0.42259675  0.14744202  0.25362604    -0.18300
C108        C  0.45089328  0.11976088  0.27394040     0.02200
C109        C  0.45037677  0.06785289  0.27116371     0.02200
C110        C  0.42220608  0.04829391  0.24640373    -0.18300
H111        H  0.42174483  0.00989347  0.24208109     0.04200
H112        H  0.42241684  0.18619956  0.25498708     0.04200
C113        C  0.23995982  0.22068050  0.04523384     0.86400
C114        C  0.26482946  0.25038652  0.51364224    -0.53800
C115        C  0.28925562  0.27414527  0.03770586     0.09300
C116        C  0.28440615  0.26889478  0.09550120     0.20300
C117        C  0.26322218  0.18866672  0.07998768    -0.54500
C118        C  0.28615309  0.21374162  0.10689059     0.09400
C119        C  0.22405383  0.25734680  0.07932242    -0.54100
C120        C  0.24618878  0.28401993  0.10481980     0.10000
H121        H  0.26428571  0.24993238  0.47349895     0.14500
H122        H  0.30243580  0.28945650  0.11717612     0.00300
H123        H  0.26243874  0.14990387  0.08203901     0.14800
H124        H  0.19696646  0.26573337  0.08027075     0.14600
O125        O  0.48838800  0.00097484  0.25272620    -0.71800
O126        O  0.55763462  0.40180458  0.27955505    -0.72100
O127        O  0.48959467  0.40417867  0.28390506    -0.71900
O128        O  0.55727045  0.99792021  0.24998713    -0.71900
O129        O  0.55884229  0.01905815  0.32733070    -0.71900
O130        O  0.49133076  0.42735851  0.36043369    -0.71900
O131        O  0.55855038  0.42271190  0.35701031    -0.71900
O132        O  0.49031012  0.02396166  0.32931933    -0.72000
V133        V  0.52319464  0.45199866  0.26781973     1.35200
V134        V  0.52465337  0.97272843  0.34203631     1.35200
C135        C  0.47850917  0.03083509  0.28512795     0.77400
C136        C  0.56841954  0.39359504  0.32386261     0.77400
C137        C  0.48059789  0.39793758  0.32947742     0.77300
C138        C  0.56907424  0.02519267  0.28256456     0.77300
O139        O  0.56042918  0.17688559  0.26125175    -0.71800
O140        O  0.49172562  0.27406718  0.29186565    -0.72100
O141        O  0.55972166  0.27068367  0.29554352    -0.71900
O142        O  0.49190464  0.18106415  0.25858180    -0.71900
O143        O  0.49020533  0.15128407  0.33482925    -0.71900
O144        O  0.55876006  0.24008878  0.37140291    -0.71900
O145        O  0.49046308  0.24417293  0.36812852    -0.71900
O146        O  0.55885743  0.14642066  0.33721184    -0.72000
V147        V  0.52606020  0.22470054  0.27817938     1.35200
V148        V  0.52466817  0.19622400  0.35145832     1.35200
C149        C  0.57015791  0.14362341  0.29268742     0.77400
C150        C  0.48047156  0.27694159  0.33628088     0.77400
C151        C  0.56904245  0.27295699  0.34103974     0.77300
C152        C  0.48003466  0.15007086  0.28974165     0.77300
C153        C  0.94603534  0.14665373  0.32751703     0.02200
C154        C  0.95282418  0.19166718  0.34971951     0.02200
C155        C  0.93213623  0.20565556  0.39059845    -0.18300
C156        C  0.90373268  0.17992756  0.40659545     0.02200
C157        C  0.89398215  0.14048622  0.37941121     0.02200
C158        C  0.91444274  0.12575111  0.33891742    -0.18300
H159        H  0.90828671  0.09285398  0.32119858     0.04200
H160        H  0.93764616  0.23778349  0.41010022     0.04200
C161        C  0.94684886  0.44285867  0.25885134     0.02200
C162        C  0.94586393  0.39405287  0.27901637     0.02200
C163        C  0.91635679  0.36791631  0.27131651    -0.18300
C164        C  0.89169383  0.38323232  0.23597417     0.02200
C165        C  0.89376735  0.42874723  0.21153698     0.02200
C166        C  0.92032053  0.45888193  0.22482491    -0.18300
H167        H  0.92083069  0.49450959  0.20734624     0.04200
H168        H  0.91539516  0.33130030  0.28642230     0.04200
C169        C  0.33830882  0.17147138  0.22173334    -0.01900
C170        C  0.37001123  0.15830514  0.19927430     0.07800
C171        C  0.37373442  0.16436427  0.14685740    -0.02000
C172        C  0.34490117  0.17623925  0.11664727    -0.02000
C173        C  0.31347500  0.19005406  0.13881411     0.07900
C174        C  0.30980718  0.18609724  0.19138389    -0.02200
Br175      Br  0.26464584  0.19305962  0.22071157    -0.00800
Br176      Br  0.33442695  0.17116465  0.29386562    -0.00800
Br177      Br  0.34785761  0.17166313  0.04479095    -0.00800
Br178      Br  0.41883930  0.15964196  0.11701610    -0.00800
C179        C  0.38464046  0.04937607  0.13671655    -0.01900
C180        C  0.37251438  0.05619562  0.18560326     0.07800
C181        C  0.33687782  0.05694420  0.19430860    -0.02000
C182        C  0.31325517  0.05675513  0.15397793    -0.02000
C183        C  0.32523720  0.05067685  0.10376365     0.07900
C184        C  0.36170453  0.05131732  0.09590002    -0.02200
Br185      Br  0.38192065  0.06108396  0.02949288    -0.00800
Br186      Br  0.43314441  0.03590494  0.12565323    -0.00800
Br187      Br  0.26589543  0.57149186  0.17049038    -0.00800
Br188      Br  0.32098243  0.05349464  0.26285165    -0.00800
C189        C  0.31229141  0.30678439  0.45516786    -0.01900
C190        C  0.31901938  0.29259884  0.50631991     0.07800
C191        C  0.35402354  0.28376650  0.52052351    -0.02000
C192        C  0.38015005  0.28196423  0.48349429    -0.02000
C193        C  0.37276244  0.29543319  0.43317367     0.07900
C194        C  0.33837362  0.30388174  0.41874189    -0.02200
Br195      Br  0.32730476  0.31042194  0.34828942    -0.00800
Br196      Br  0.26777446  0.33467935  0.43474516    -0.00800
Br197      Br  0.42652684  0.26058844  0.50116414    -0.00800
Br198      Br  0.36874099  0.28089786  0.08964766    -0.02400
C199        C  0.34786785  0.41921923  0.39765866    -0.01900
C200        C  0.37536431  0.39846258  0.42534295     0.07800
C201        C  0.37402570  0.39603797  0.47784778    -0.02000
C202        C  0.34311628  0.40670990  0.00278705    -0.02000
C203        C  0.31514921  0.42999254  0.47604413     0.07900
C204        C  0.31712385  0.43242349  0.42199082    -0.02200
Br205      Br  0.27835026  0.44141151  0.37678965    -0.00800
Br206      Br  0.35282155  0.42972449  0.32550529    -0.00800
Br207      Br  0.34164818  0.39649220  0.07525804    -0.00800
Br208      Br  0.41608941  0.38415297  0.51511357    -0.00800
C209        C  0.73683948  0.40735568  0.42022517    -0.01900
C210        C  0.72738698  0.44388186  0.45277063     0.07800
C211        C  0.69550807  0.46824376  0.44302116    -0.02000
C212        C  0.66899475  0.44387110  0.42073780    -0.02000
C213        C  0.67672563  0.39935206  0.39936119     0.07900
C214        C  0.71145094  0.38460976  0.39359744    -0.02200
Br215      Br  0.72416615  0.33761311  0.34549882    -0.00800
Br216      Br  0.78414702  0.39896329  0.90204390    -0.00800
Br217      Br  0.62279645  0.47145690  0.42107495    -0.00800
Br218      Br  0.68955466  0.03634754  0.45279532    -0.00800
C219        C  0.66458785  0.02422035  0.13835067    -0.01900
C220        C  0.67725324  0.04113476  0.18356682     0.07800
C221        C  0.71327076  0.04561008  0.18704489    -0.02000
C222        C  0.73429952  0.04613867  0.14321111    -0.02000
C223        C  0.72202965  0.02823002  0.09796045     0.07900
C224        C  0.68751467  0.01275828  0.09891537    -0.02200
Br225      Br  0.67085053  0.46984937  0.05211553    -0.00800
Br226      Br  0.61572187  0.01660777  0.12888931    -0.00800
Br227      Br  0.78138619  0.06440958  0.14757254    -0.00800
Br228      Br  0.73413939  0.04035770  0.25243189    -0.00800
C229        C  0.87632072  0.42392901  0.12167462    -0.01900
C230        C  0.86915277  0.44164048  0.16951187     0.07800
C231        C  0.83491737  0.45550649  0.18099739    -0.02000
C232        C  0.80817831  0.44849539  0.14650047    -0.02000
C233        C  0.81564733  0.43522843  0.09723252     0.07900
C234        C  0.84943035  0.41766672  0.08750493    -0.02200
Br235      Br  0.85791506  0.38274296  0.02792083    -0.00800
Br236      Br  0.92328175  0.41134641  0.10163184    -0.00800
Br237      Br  0.76219203  0.44291370  0.17050277    -0.00800
Br238      Br  0.82533669  0.48710711  0.24270476    -0.00800
C239        C  0.83152154  0.12488816  0.40069346    -0.01900
C240        C  0.86650861  0.10913420  0.39920174     0.07800
C241        C  0.87556249  0.06293590  0.41853933    -0.02000
C242        C  0.85065231  0.03560929  0.44235867    -0.02000
C243        C  0.81883334  0.05726299  0.45823215     0.07900
C244        C  0.80758192  0.09827668  0.42936410    -0.02200
Br245      Br  0.75938597  0.10850857  0.41650452    -0.00800
Br246      Br  0.81599787  0.17972427  0.35985550    -0.00800
Br247      Br  0.85675517  0.46746410  0.43547920    -0.00800
Br248      Br  0.92191812  0.03552939  0.41397815    -0.00800
C249        C  0.67613600  0.14752145  0.15636753    -0.01900
C250        C  0.67897162  0.14143044  0.20846576     0.07800
C251        C  0.70956414  0.15166467  0.23278858    -0.02000
C252        C  0.73860595  0.16367438  0.20432767    -0.02000
C253        C  0.73548457  0.17179214  0.15156534     0.07900
C254        C  0.70531364  0.15668155  0.12789135    -0.02200
Br255      Br  0.70270361  0.14900121  0.05654182    -0.00800
Br256      Br  0.63188932  0.14327112  0.12443605    -0.00800
Br257      Br  0.78316749  0.15352513  0.23606029    -0.00800
Br258      Br  0.71185120  0.14693816  0.30492232    -0.00800
C259        C  0.66779048  0.33428869  0.50015498    -0.01900
C260        C  0.66681560  0.30965938  0.45510019     0.07800
C261        C  0.69197300  0.27389863  0.44660045    -0.02000
C262        C  0.71988310  0.26627159  0.47981182    -0.02000
C263        C  0.72397584  0.29513592  0.52217077     0.07900
C264        C  0.69633212  0.32768993  0.03309809    -0.02200
Br265      Br  0.69521884  0.35706941  0.09745424    -0.00800
Br266      Br  0.62715656  0.37046082  0.51952413    -0.00800
Br267      Br  0.74835991  0.21074862  0.46918179    -0.00800
Br268      Br  0.68646730  0.23278920  0.39073032    -0.00800
C269        C  0.85629288  0.29931766  0.14517319    -0.01900
C270        C  0.82041019  0.30391952  0.15475501     0.07800
C271        C  0.80937255  0.32719496  0.19867302    -0.02000
C272        C  0.83345041  0.34846215  0.22915845    -0.02000
C273        C  0.86833594  0.34762788  0.21618436     0.07900
C274        C  0.88002073  0.31899987  0.17730054    -0.02200
Br275      Br  0.92882007  0.30429447  0.17048673    -0.00800
Br276      Br  0.87505915  0.26636062  0.08954800    -0.00800
Br277      Br  0.81987876  0.37416790  0.29169649    -0.00800
Br278      Br  0.76135096  0.32979006  0.21824278    -0.00800
C279        C  0.86085200  0.23734406  0.44268325    -0.01900
C280        C  0.88247857  0.19651193  0.44950715     0.07800
C281        C  0.87998010  0.16793896  0.49389644    -0.02000
C282        C  0.85255763  0.17567244  0.52779671    -0.02000
C283        C  0.82758013  0.21365943  0.51811973     0.07900
C284        C  0.83302130  0.24499048  0.47546119    -0.02200
Br285      Br  0.80194056  0.29679664  0.45614043    -0.00800
Br286      Br  0.86860922  0.28214617  0.38650166    -0.00800
Br287      Br  0.85327979  0.13736444  0.08992537    -0.00800
Br288      Br  0.91641175  0.12115402  0.51002893    -0.00800
C289        C  0.23531334  0.46233641  0.16368517    -0.01900
C290        C  0.22591516  0.47180208  0.11318761     0.07800
C291        C  0.19072511  0.47534717  0.10028289    -0.02000
C292        C  0.16544122  0.47544057  0.13806673    -0.02000
C293        C  0.17469621  0.46326357  0.18808757     0.07900
C294        C  0.20976685  0.46001756  0.20113481    -0.02200
Br295      Br  0.22230019  0.45400727  0.27069704    -0.00800
Br296      Br  0.28262727  0.44660692  0.18085646    -0.00800
Br297      Br  0.11808517  0.49185579  0.12111235    -0.00800
Br298      Br  0.17636324  0.47256778  0.03124862    -0.00800
C299        C  0.23511684  0.32560769  0.18600094    -0.01900
C300        C  0.23090013  0.32465439  0.13354715     0.07800
C301        C  0.20154801  0.34850385  0.11172134    -0.02000
C302        C  0.17321233  0.36047427  0.14180860    -0.02000
C303        C  0.17656165  0.35995623  0.19432108     0.07900
C304        C  0.20749561  0.34154905  0.21654695    -0.02200
Br305      Br  0.21044481  0.33252194  0.28847845    -0.00800
Br306      Br  0.27960644  0.31145857  0.21525377    -0.00800
Br307      Br  0.12840650  0.36972709  0.11155490    -0.00800
Br308      Br  0.19824119  0.35684840  0.03922594    -0.00800
C309        C  0.22627430  0.18284805  0.46260627    -0.01900
C310        C  0.21423510  0.19661491  0.51054964     0.07800
C311        C  0.17781750  0.20142887  0.51743188    -0.02000
C312        C  0.15552223  0.20143680  0.47573333    -0.02000
C313        C  0.16850334  0.19238482  0.42747181     0.07900
C314        C  0.20424847  0.18687980  0.42082268    -0.02200
Br315      Br  0.22317503  0.19030726  0.35404912    -0.00800
Br316      Br  0.27372175  0.16022213  0.45355251    -0.00800
Br317      Br  0.10678274  0.21463746  0.48468522    -0.00800
Br318      Br  0.15666881  0.19699075  0.08363479    -0.00800
C319        C  0.19888825  0.07863988  0.38898912    -0.01900
C320        C  0.16780013  0.09089316  0.41209898     0.07800
C321        C  0.16441515  0.08594085  0.46436750    -0.02000
C322        C  0.19358216  0.07679098  0.99472879    -0.02000
C323        C  0.22563424  0.06411515  0.47221951     0.07900
C324        C  0.22812043  0.06815141  0.41842084    -0.02200
Br325      Br  0.27191824  0.06446773  0.38319881    -0.00800
Br326      Br  0.20104653  0.07753663  0.31644573    -0.00800
Br327      Br  0.18760037  0.08562955  0.06554235    -0.00800
Br328      Br  0.11891647  0.08971183  0.49337079    -0.00800
C329        C  0.09149508  0.13373014  0.83290730     0.02200
C330        C  0.09306910  0.18540890  0.83723989     0.02200
C331        C  0.12101752  0.20344749  0.86369657    -0.18300
C332        C  0.14495713  0.17330232  0.88932591     0.02200
C333        C  0.14344786  0.12353112  0.88420082     0.02200
C334        C  0.11829860  0.10477970  0.85461592    -0.18300
H335        H  0.11809394  0.06608471  0.85221265     0.04200
H336        H  0.12263071  0.24170816  0.86823868     0.04200
O337        O  0.98393498  0.50962146  0.74000725    -0.71800
O338        O  0.05248093  0.10059661  0.77225451    -0.72100
O339        O  0.05306453  0.50614106  0.74269583    -0.71900
O340        O  0.98390013  0.10437281  0.76946343    -0.71900
O341        O  0.98291966  0.07785469  0.84692717    -0.71900
O342        O  0.05170961  0.47925918  0.82004166    -0.71900
O343        O  0.05067963  0.07352073  0.84948729    -0.71900
O344        O  0.98312604  0.48289742  0.81740037    -0.72000
V345        V  0.01826671  0.05438464  0.75754073     1.35200
V346        V  0.01702535  0.52907962  0.83185834     1.35200
C347        C  0.97297979  0.47915446  0.77258265     0.77400
C348        C  0.06224330  0.10375980  0.81739230     0.77400
C349        C  0.06364702  0.47512067  0.77603073     0.77300
C350        C  0.97317716  0.10960536  0.81393259     0.77300
O351        O  0.05455265  0.32709863  0.75045497    -0.71800
O352        O  0.98586383  0.23600720  0.78616704    -0.72100
O353        O  0.98640225  0.33286030  0.75581686    -0.71900
O354        O  0.05367630  0.23051665  0.78050478    -0.71900
O355        O  0.05803723  0.25422128  0.85662125    -0.71900
O356        O  0.98765434  0.35219221  0.83374827    -0.71900
O357        O  0.99047733  0.25606594  0.86346169    -0.71900
O358        O  0.05599595  0.35059260  0.82695375    -0.72000
V359        V  0.02013338  0.28241219  0.76956082     1.35200
V360        V  0.02302724  0.30272639  0.84369694     1.35200
C361        C  0.06580454  0.35593715  0.78179770     0.77400
C362        C  0.97821098  0.22823460  0.83202250     0.77400
C363        C  0.97610394  0.36071023  0.78982019     0.77300
C364        C  0.06620298  0.22364997  0.82406615     0.77300
C365        C  0.09313598  0.44070094  0.76386378     0.02200
C366        C  0.09405621  0.38861929  0.76642502     0.02200
C367        C  0.12331609  0.36377107  0.74732247    -0.18300
C368        C  0.15025462  0.38752258  0.72363769     0.02200
C369        C  0.14929401  0.43809646  0.72068479     0.02200
C370        C  0.12170141  0.46366671  0.74221437    -0.18300
H371        H  0.12148880  0.50249162  0.73886056     0.04200
H372        H  0.12416028  0.32490019  0.74774247     0.04200
C373        C  0.75673079  0.20893158  0.62299307     0.86400
C374        C  0.73246185  0.24538359  0.59600141    -0.53800
C375        C  0.74725413  0.27760018  0.56497422     0.09300
C376        C  0.78762760  0.27553905  0.57055023     0.20300
C377        C  0.78140098  0.18972306  0.58227171    -0.54500
C378        C  0.79912666  0.22434562  0.55569165     0.09400
C379        C  0.77882256  0.24021902  0.65416177    -0.54100
C380        C  0.79542522  0.27472137  0.62776306     0.10000
H381        H  0.70461893  0.24306717  0.59711586     0.14500
H382        H  0.80074057  0.30574137  0.55206501     0.00300
H383        H  0.78436777  0.15197456  0.57538897     0.14800
H384        H  0.78112494  0.23732708  0.69432581     0.14600
C385        C  0.79436554  0.02798333  0.49214690     0.86400
C386        C  0.77421468  0.99713477  0.95906242    -0.53800
C387        C  0.75409163  0.46581419  0.48314431     0.09300
C388        C  0.75742566  0.46546009  0.54179342     0.20300
C389        C  0.76667601  0.05079500  0.52812077    -0.54500
C390        C  0.74708459  0.01745448  0.55501593     0.09400
C391        C  0.81475009  0.99452959  0.52835894    -0.54100
C392        C  0.79678699  0.46104798  0.55408830     0.10000
H393        H  0.77370749  0.00250117  0.91839116     0.14500
H394        H  0.74233327  0.43782855  0.56181986     0.00300
H395        H  0.76388887  0.08893226  0.53297066     0.14800
H396        H  0.84166556  0.00021502  0.53633033     0.14600
C397        C  0.65403083  0.11087796  0.73405154     0.02200
C398        C  0.65290819  0.06198345  0.72274558     0.02200
C399        C  0.62562470  0.03588530  0.74326022    -0.18300
C400        C  0.59761227  0.05813950  0.76906819     0.02200
C401        C  0.59881069  0.10898052  0.77804690     0.02200
C402        C  0.62829698  0.13283244  0.76251492    -0.18300
H403        H  0.62976463  0.17097654  0.76818025     0.04200
H404        H  0.62515148  0.99796867  0.73626502     0.04200
C405        C  0.64258926  0.32545757  0.91357487     0.02200
C406        C  0.64896155  0.36768113  0.88499767     0.02200
C407        C  0.62716420  0.38207858  0.84546109    -0.18300
C408        C  0.59700723  0.35801265  0.83615273     0.02200
C409        C  0.59315938  0.31059766  0.85876425     0.02200
C410        C  0.61562751  0.29655002  0.89902177    -0.18300
H411        H  0.61273523  0.26227883  0.91871466     0.04200
H412        H  0.63114717  0.41656981  0.82652874     0.04200
C413        C  0.45308610  0.36493048  0.84716446     0.02200
C414        C  0.45288817  0.31278360  0.85106508     0.02200
C415        C  0.42524086  0.29125885  0.87712833    -0.18300
C416        C  0.40000897  0.31837827  0.90189514     0.02200
C417        C  0.40134699  0.36862700  0.89927885     0.02200
C418        C  0.42654507  0.39082973  0.87103141    -0.18300
H419        H  0.42614005  0.42975916  0.86972639     0.04200
H420        H  0.42408838  0.25253535  0.88024929     0.04200
C421        C  0.29259247  0.46531633  0.50627038     0.86400
C422        C  0.31671220  0.99808016  0.53289136    -0.53800
C423        C  0.30265506  0.03209068  0.56229121     0.09300
C424        C  0.26288633  0.03309591  0.55753896     0.20300
C425        C  0.26881260  0.44597188  0.54797805    -0.54500
C426        C  0.25262938  0.48151514  0.57454400     0.09400
C427        C  0.26863759  0.49867328  0.97622516    -0.54100
C428        C  0.25406154  0.03618209  0.50033567     0.10000
H429        H  0.34375875  0.98886738  0.53402071     0.14500
H430        H  0.25105299  0.06251979  0.57754432     0.00300
H431        H  0.26445123  0.40817823  0.55489381     0.14800
H432        H  0.25287880  0.98505067  0.94776774     0.14600
C433        C  0.39618054  0.07697289  0.72270024     0.02200
C434        C  0.39594742  0.12708810  0.72754413     0.02200
C435        C  0.42259631  0.14744332  0.75362566    -0.18300
C436        C  0.45089268  0.11976214  0.77394063     0.02200
C437        C  0.45037602  0.06785409  0.77116431     0.02200
C438        C  0.42220533  0.04829511  0.74640431    -0.18300
H439        H  0.42174399  0.00989464  0.74208195     0.04200
H440        H  0.42241651  0.18620087  0.75498637     0.04200
C441        C  0.23995934  0.22068160  0.54523273     0.86400
C442        C  0.26482992  0.25038544  0.01364340    -0.53800
C443        C  0.28925513  0.27414644  0.53770472     0.09300
C444        C  0.28440570  0.26889583  0.59550007     0.20300
C445        C  0.26322171  0.18866779  0.57998656    -0.54500
C446        C  0.28615268  0.21374267  0.60688943     0.09400
C447        C  0.22405336  0.25734795  0.57932126    -0.54100
C448        C  0.24618837  0.28402094  0.60481869     0.10000
H449        H  0.26428610  0.24993150  0.97350009     0.14500
H450        H  0.30243523  0.28945761  0.61717512     0.00300
H451        H  0.26243824  0.14990495  0.58203795     0.14800
H452        H  0.19696602  0.26573491  0.58026926     0.14600
O453        O  0.48838699  0.00097578  0.75272685    -0.71800
O454        O  0.55763369  0.40180576  0.77955477    -0.72100
O455        O  0.48959376  0.40417961  0.78390536    -0.71900
O456        O  0.55726941  0.99792117  0.74998737    -0.71900
O457        O  0.55884158  0.01905889  0.82733100    -0.71900
O458        O  0.49132989  0.42735950  0.86043397    -0.71900
O459        O  0.55854953  0.42271258  0.85701020    -0.71900
O460        O  0.49030941  0.02396273  0.82931991    -0.72000
V461        V  0.52319362  0.45199974  0.76781989     1.35200
V462        V  0.52465260  0.97272933  0.84203674     1.35200
C463        C  0.47850835  0.03083615  0.78512858     0.77400
C464        C  0.56841875  0.39359603  0.82386222     0.77400
C465        C  0.48059707  0.39793848  0.82947776     0.77300
C466        C  0.56907338  0.02519345  0.78256479     0.77300
O467        O  0.56042881  0.17688644  0.76125172    -0.71800
O468        O  0.49172535  0.27406807  0.79186571    -0.72100
O469        O  0.55972140  0.27068463  0.79554322    -0.71900
O470        O  0.49190426  0.18106514  0.75858199    -0.71900
O471        O  0.49020493  0.15128531  0.83482953    -0.71900
O472        O  0.55876020  0.24008979  0.87140265    -0.71900
O473        O  0.49046317  0.24417411  0.86812873    -0.71900
O474        O  0.55885707  0.14642147  0.83721179    -0.72000
V475        V  0.52605990  0.22470147  0.77817938     1.35200
V476        V  0.52466804  0.19622505  0.85145838     1.35200
C477        C  0.57015746  0.14362417  0.79268733     0.77400
C478        C  0.48047144  0.27694255  0.83628101     0.77400
C479        C  0.56904244  0.27295802  0.84103931     0.77300
C480        C  0.48003417  0.15007204  0.78974193     0.77300
C481        C  0.94603613  0.14665467  0.82751939     0.02200
C482        C  0.95282508  0.19166808  0.84972193     0.02200
C483        C  0.93213723  0.20565652  0.89060093    -0.18300
C484        C  0.90373374  0.17992849  0.90659796     0.02200
C485        C  0.89398326  0.14048709  0.87941389     0.02200
C486        C  0.91444369  0.12575189  0.83892012    -0.18300
H487        H  0.90828765  0.09285463  0.82120151     0.04200
H488        H  0.93764704  0.23778463  0.91010247     0.04200
C489        C  0.94684890  0.44285954  0.75885223     0.02200
C490        C  0.94586384  0.39405381  0.77901758     0.02200
C491        C  0.91635673  0.36791710  0.77131752    -0.18300
C492        C  0.89169402  0.38323267  0.73597460     0.02200
C493        C  0.89376776  0.42874739  0.71153706     0.02200
C494        C  0.92032081  0.45888235  0.72482515    -0.18300
H495        H  0.92083100  0.49450989  0.70734623     0.04200
H496        H  0.91539504  0.33130121  0.78642362     0.04200
C497        C  0.33830813  0.17147192  0.72173235    -0.01900
C498        C  0.37001075  0.15830619  0.69927358     0.07800
C499        C  0.37373409  0.16436556  0.64685669    -0.02000
C500        C  0.34490091  0.17624066  0.61664637    -0.02000
C501        C  0.31347459  0.19005509  0.63881301     0.07900
C502        C  0.30980655  0.18609772  0.69138273    -0.02200
Br503      Br  0.26464503  0.19305940  0.72071002    -0.00800
Br504      Br  0.33442587  0.17116453  0.79386459    -0.00800
Br505      Br  0.34785758  0.17166507  0.54478999    -0.00800
Br506      Br  0.41883904  0.15964338  0.61701562    -0.00800
C507        C  0.38464033  0.04937744  0.63671654    -0.01900
C508        C  0.37251407  0.05619660  0.68560320     0.07800
C509        C  0.33687750  0.05694472  0.69430834    -0.02000
C510        C  0.31325499  0.05675574  0.65397748    -0.02000
C511        C  0.32523723  0.05067806  0.60376320     0.07900
C512        C  0.36170456  0.05131889  0.59589984    -0.02200
Br513      Br  0.38192090  0.06108630  0.52949297    -0.00800
Br514      Br  0.43314434  0.03590647  0.62565359    -0.00800
Br515      Br  0.26589515  0.57149211  0.67049007    -0.00800
Br516      Br  0.32098195  0.05349424  0.76285130    -0.00800
C517        C  0.31229161  0.30678340  0.95516905    -0.01900
C518        C  0.31901983  0.29259754  0.00632092     0.07800
C519        C  0.35402403  0.28376482  0.02052407    -0.02000
C520        C  0.38015036  0.28196281  0.98349454    -0.02000
C521        C  0.37276248  0.29543212  0.93317407     0.07900
C522        C  0.33837357  0.30388065  0.91874272    -0.02200
Br523      Br  0.32730422  0.31042087  0.84829045    -0.00800
Br524      Br  0.26777465  0.33467900  0.93474724    -0.00800
Br525      Br  0.42652733  0.26058739  0.00116383    -0.00800
Br526      Br  0.36874021  0.28089974  0.58964725    -0.02400
C527        C  0.34786725  0.41921826  0.89765907    -0.01900
C528        C  0.37536362  0.39846167  0.92534361     0.07800
C529        C  0.37402475  0.39603667  0.97784842    -0.02000
C530        C  0.34311740  0.40671155  0.50278676    -0.02000
C531        C  0.31514839  0.42999142  0.97604429     0.07900
C532        C  0.31712321  0.43242261  0.92199101    -0.02200
Br533      Br  0.27834969  0.44141079  0.87678969    -0.00800
Br534      Br  0.35282103  0.42972311  0.82550564    -0.00800
Br535      Br  0.34164991  0.39649480  0.57525788    -0.00800
Br536      Br  0.41608822  0.38415161  0.01511475    -0.00800
C537        C  0.73683939  0.40735788  0.92022363    -0.01900
C538        C  0.72738676  0.44388406  0.95276900     0.07800
C539        C  0.69550800  0.46824623  0.94301897    -0.02000
C540        C  0.66899478  0.44387390  0.92073477    -0.02000
C541        C  0.67672567  0.39935476  0.89935831     0.07900
C542        C  0.71145102  0.38461248  0.89359502    -0.02200
Br543      Br  0.72416655  0.33761712  0.84549530    -0.00800
Br544      Br  0.78414685  0.39896223  0.40204357    -0.00800
Br545      Br  0.62279670  0.47146050  0.92107010    -0.00800
Br546      Br  0.68955497  0.03634883  0.95279583    -0.00800
C547        C  0.66458721  0.02421997  0.63835090    -0.01900
C548        C  0.67725255  0.04113433  0.68356709     0.07800
C549        C  0.71327008  0.04560952  0.68704524    -0.02000
C550        C  0.73429891  0.04613820  0.64321150    -0.02000
C551        C  0.72202906  0.02822986  0.59796069     0.07900
C552        C  0.68751406  0.01275811  0.59891556    -0.02200
Br553      Br  0.67084969  0.46984802  0.55211700    -0.00800
Br554      Br  0.61572124  0.01660698  0.62888972    -0.00800
Br555      Br  0.78138562  0.06440883  0.64757313    -0.00800
Br556      Br  0.73413864  0.04035677  0.75243228    -0.00800
C557        C  0.87632054  0.42392863  0.62167497    -0.01900
C558        C  0.86915303  0.44164057  0.66951217     0.07800
C559        C  0.83491772  0.45550659  0.68099825    -0.02000
C560        C  0.80817840  0.44849533  0.64650186    -0.02000
C561        C  0.81564700  0.43522793  0.59723395     0.07900
C562        C  0.84942983  0.41766581  0.58750603    -0.02200
Br563      Br  0.85791357  0.38273986  0.52792315    -0.00800
Br564      Br  0.92328134  0.41134612  0.60163110    -0.00800
Br565      Br  0.76219227  0.44291385  0.67050487    -0.00800
Br566      Br  0.82533745  0.48710689  0.74270593    -0.00800
C567        C  0.83152264  0.12488854  0.90069465    -0.01900
C568        C  0.86650983  0.10913512  0.89920441     0.07800
C569        C  0.87556384  0.06293710  0.91854257    -0.02000
C570        C  0.85065340  0.03561000  0.94236045    -0.02000
C571        C  0.81883408  0.05726330  0.95823289     0.07900
C572        C  0.80758279  0.09827692  0.92936462    -0.02200
Br573      Br  0.75938694  0.10850883  0.91650414    -0.00800
Br574      Br  0.81599921  0.17972383  0.85985529    -0.00800
Br575      Br  0.85675485  0.46746591  0.93547575    -0.00800
Br576      Br  0.92191980  0.03553140  0.91398342    -0.00800
C577        C  0.67613575  0.14752095  0.65636720    -0.01900
C578        C  0.67897111  0.14143006  0.70846546     0.07800
C579        C  0.70956355  0.15166400  0.73278861    -0.02000
C580        C  0.73860555  0.16367343  0.70432803    -0.02000
C581        C  0.73548448  0.17179121  0.65156565     0.07900
C582        C  0.70531354  0.15668095  0.62789129    -0.02200
Br583      Br  0.70270355  0.14900146  0.55654160    -0.00800
Br584      Br  0.63188918  0.14327057  0.62443532    -0.00800
Br585      Br  0.78316683  0.15352374  0.73606128    -0.00800
Br586      Br  0.71185022  0.14693712  0.80492242    -0.00800
C587        C  0.66779083  0.33429055  0.00015275    -0.01900
C588        C  0.66681654  0.30966180  0.95509756     0.07800
C589        C  0.69197411  0.27390124  0.94659784    -0.02000
C590        C  0.71988340  0.26627310  0.97981040    -0.02000
C591        C  0.72397566  0.29513700  0.02216975     0.07900
C592        C  0.69633226  0.32768869  0.53309951    -0.02200
Br593      Br  0.69521978  0.35706893  0.59745524    -0.00800
Br594      Br  0.62715686  0.37046306  0.01952106    -0.00800
Br595      Br  0.74835927  0.21074880  0.96918185    -0.00800
Br596      Br  0.68646972  0.23279351  0.89072599    -0.00800
C597        C  0.85629356  0.29931569  0.64517471    -0.01900
C598        C  0.82041082  0.30391791  0.65475587     0.07800
C599        C  0.80937292  0.32719412  0.69867323    -0.02000
C600        C  0.83345060  0.34846181  0.72915864    -0.02000
C601        C  0.86833620  0.34762796  0.71618468     0.07900
C602        C  0.88002122  0.31899942  0.67730134    -0.02200
Br603      Br  0.92882069  0.30429525  0.67048741    -0.00800
Br604      Br  0.87505994  0.26635479  0.58955205    -0.00800
Br605      Br  0.81987856  0.37416726  0.79169667    -0.00800
Br606      Br  0.76135119  0.32978923  0.71824216    -0.00800
C607        C  0.86085215  0.23734464  0.94268365    -0.01900
C608        C  0.88247928  0.19651328  0.94950897     0.07800
C609        C  0.87998091  0.16794114  0.99389883    -0.02000
C610        C  0.85255812  0.17567468  0.02779849    -0.02000
C611        C  0.82758008  0.21366064  0.01812001     0.07900
C612        C  0.83302110  0.24499101  0.97546091    -0.02200
Br613      Br  0.80194014  0.29679657  0.95613912    -0.00800
Br614      Br  0.86860917  0.28214568  0.88650105    -0.00800
Br615      Br  0.85327888  0.13735987  0.58992204    -0.00800
Br616      Br  0.91641304  0.12115742  0.01003285    -0.00800
C617        C  0.23531347  0.46233679  0.66368516    -0.01900
C618        C  0.22591557  0.47180281  0.61318752     0.07800
C619        C  0.19072559  0.47534869  0.60028253    -0.02000
C620        C  0.16544155  0.47544263  0.63806611    -0.02000
C621        C  0.17469618  0.46326493  0.68808689     0.07900
C622        C  0.20976674  0.46001806  0.70113451    -0.02200
Br623      Br  0.22229962  0.45400653  0.77069689    -0.00800
Br624      Br  0.28262727  0.44660698  0.68085694    -0.00800
Br625      Br  0.11808574  0.49185908  0.62111142    -0.00800
Br626      Br  0.17636388  0.47256884  0.53124829    -0.00800
C627        C  0.23511594  0.32560834  0.68599965    -0.01900
C628        C  0.23089991  0.32465563  0.63354572     0.07800
C629        C  0.20154827  0.34850569  0.61171925    -0.02000
C630        C  0.17321229  0.36047642  0.64180585    -0.02000
C631        C  0.17656089  0.35995757  0.69431850     0.07900
C632        C  0.20749439  0.34154959  0.71654504    -0.02200
Br633      Br  0.21044252  0.33252134  0.78847654    -0.00800
Br634      Br  0.27960510  0.31145838  0.71525356    -0.00800
Br635      Br  0.12840696  0.36973054  0.61155087    -0.00800
Br636      Br  0.19824249  0.35685012  0.53922374    -0.00800
C637        C  0.22627474  0.18284738  0.96260714    -0.01900
C638        C  0.21423560  0.19661387  0.01055068     0.07800
C639        C  0.17781805  0.20142816  0.01743292    -0.02000
C640        C  0.15552279  0.20143722  0.97573429    -0.02000
C641        C  0.16850379  0.19238531  0.92747269     0.07900
C642        C  0.20424890  0.18687973  0.92082355    -0.02200
Br643      Br  0.22317544  0.19030712  0.85404996    -0.00800
Br644      Br  0.27372217  0.16022146  0.95355314    -0.00800
Br645      Br  0.10678352  0.21463957  0.98468625    -0.00800
Br646      Br  0.15666827  0.19699237  0.58363380    -0.00800
C647        C  0.19888833  0.07864004  0.88898979    -0.01900
C648        C  0.16780025  0.09089375  0.91209955     0.07800
C649        C  0.16441513  0.08594124  0.96436807    -0.02000
C650        C  0.19358233  0.07679148  0.49472810    -0.02000
C651        C  0.22563410  0.06411473  0.97222026     0.07900
C652        C  0.22812042  0.06815124  0.91842160    -0.02200
Br653      Br  0.27191829  0.06446723  0.88319966    -0.00800
Br654      Br  0.20104669  0.07753654  0.81644642    -0.00800
Br655      Br  0.18760068  0.08563118  0.56554149    -0.00800
Br656      Br  0.11891644  0.08971343  0.99337121    -0.00800
C657        C  0.09153565  0.63372164  0.33275643     0.02200
C658        C  0.09308733  0.68539303  0.33717301     0.02200
C659        C  0.12102699  0.70341908  0.36365707    -0.18300
C660        C  0.14498938  0.67326353  0.38922329     0.02200
C661        C  0.14352913  0.62350195  0.38396694     0.02200
C662        C  0.11837545  0.60476811  0.35436741    -0.18300
H663        H  0.11818764  0.56607877  0.35189690     0.04200
H664        H  0.12261542  0.74167206  0.36827523     0.04200
O665        O  0.98391429  0.00960336  0.24014661    -0.71800
O666        O  0.05250575  0.60059446  0.27212466    -0.72100
O667        O  0.05304930  0.00613913  0.24282975    -0.71900
O668        O  0.98391687  0.60437922  0.26933587    -0.71900
O669        O  0.98292762  0.57785056  0.34679569    -0.71900
O670        O  0.05168979  0.97925509  0.32017496    -0.71900
O671        O  0.05070303  0.57352594  0.34935986    -0.71900
O672        O  0.98310389  0.98289515  0.31754512    -0.72000
V673        V  0.01828672  0.55439120  0.25740925     1.35200
V674        V  0.01700623  0.02907525  0.33199037     1.35200
C675        C  0.97295575  0.97914450  0.27273034     0.77400
C676        C  0.06227274  0.60375738  0.31726027     0.77400
C677        C  0.06363460  0.97512416  0.27616715     0.77300
C678        C  0.97318005  0.60959926  0.31380121     0.77300
O679        O  0.05457184  0.82715921  0.25054114    -0.71800
O680        O  0.98588929  0.73602098  0.28609735    -0.72100
O681        O  0.98642172  0.83289693  0.25586473    -0.71900
O682        O  0.05370155  0.73054856  0.28047147    -0.71900
O683        O  0.05803843  0.75416715  0.35662437    -0.71900
O684        O  0.98765295  0.85214540  0.33382351    -0.71900
O685        O  0.99048666  0.75600197  0.36342037    -0.71900
O686        O  0.05599589  0.85056222  0.32707647    -0.72000
V687        V  0.02015617  0.78244641  0.26956873     1.35200
V688        V  0.02302989  0.80267996  0.34373527     1.35200
C689        C  0.06581306  0.85595842  0.28193197     0.77400
C690        C  0.97822811  0.72820679  0.33194191     0.77400
C691        C  0.97610810  0.86070207  0.28989838     0.77300
C692        C  0.06621511  0.72363431  0.32403537     0.77300
C693        C  0.09313242  0.94071739  0.26401031     0.02200
C694        C  0.09407286  0.88863923  0.26662804     0.02200
C695        C  0.12335323  0.86378604  0.24760359    -0.18300
C696        C  0.15028441  0.88752734  0.22389539     0.02200
C697        C  0.14929741  0.93810172  0.22085502     0.02200
C698        C  0.12169203  0.96368136  0.24234263    -0.18300
H699        H  0.12146536  0.00250470  0.23894110     0.04200
H700        H  0.12420806  0.82491339  0.24806760     0.04200
C701        C  0.75677775  0.70891896  0.12285034     0.86400
C702        C  0.73251092  0.74540659  0.09590805    -0.53800
C703        C  0.74730533  0.77764976  0.06491207     0.09300
C704        C  0.78768099  0.77557102  0.07048993     0.20300
C705        C  0.78143397  0.68975208  0.08209744    -0.54500
C706        C  0.79917186  0.72439487  0.05557053     0.09400
C707        C  0.77887965  0.74015806  0.15405911    -0.54100
C708        C  0.79548475  0.77468188  0.12770126     0.10000
H709        H  0.70466815  0.74308733  0.09701988     0.14500
H710        H  0.80079780  0.80579307  0.05205561     0.00300
H711        H  0.78437444  0.65201409  0.07514987     0.14800
H712        H  0.78117704  0.73723564  0.19422299     0.14600
C713        C  0.79431632  0.52803752  0.99195090     0.86400
C714        C  0.77417246  0.49716300  0.45887856    -0.53800
C715        C  0.75410791  0.96580658  0.98330785     0.09300
C716        C  0.75742996  0.96544471  0.04196322     0.20300
C717        C  0.76662421  0.55082321  0.02793470    -0.54500
C718        C  0.74705398  0.51746203  0.05483436     0.09400
C719        C  0.81472646  0.49460356  0.02815930    -0.54100
C720        C  0.79678740  0.96099188  0.05427440     0.10000
H721        H  0.77365383  0.50251842  0.41820605     0.14500
H722        H  0.74232479  0.93782219  0.06198083     0.00300
H723        H  0.76382584  0.58895715  0.03279355     0.14800
H724        H  0.84164418  0.50030187  0.03610281     0.14600
C725        C  0.65404834  0.61085541  0.23381645     0.02200
C726        C  0.65291912  0.56195042  0.22256963     0.02200
C727        C  0.62564540  0.53587190  0.24312716    -0.18300
C728        C  0.59764254  0.55814752  0.26893239     0.02200
C729        C  0.59883993  0.60900915  0.27784886     0.02200
C730        C  0.62832046  0.63284533  0.26225937    -0.18300
H731        H  0.62979734  0.67099473  0.26788641     0.04200
H732        H  0.62517332  0.49794743  0.23616762     0.04200
C733        C  0.64263653  0.82555503  0.41352281     0.02200
C734        C  0.64897120  0.86781742  0.38499134     0.02200
C735        C  0.62714596  0.88222471  0.34549127    -0.18300
C736        C  0.59701073  0.85810582  0.33616578     0.02200
C737        C  0.59320488  0.81066082  0.35872595     0.02200
C738        C  0.61569672  0.79661349  0.39895375    -0.18300
H739        H  0.61283893  0.76231882  0.41861391     0.04200
H740        H  0.63109143  0.91674592  0.32660083     0.04200
C741        C  0.45306136  0.86489082  0.34723370     0.02200
C742        C  0.45290804  0.81274079  0.35113362     0.02200
C743        C  0.42528527  0.79116998  0.37721956    -0.18300
C744        C  0.40002114  0.81825107  0.40197224     0.02200
C745        C  0.40130852  0.86850558  0.39933581     0.02200
C746        C  0.42649407  0.89074915  0.37109277    -0.18300
H747        H  0.42605674  0.92967943  0.36978138     0.04200
H748        H  0.42416783  0.75244316  0.38034570     0.04200
C749        C  0.29256517  0.96529549  0.00636582     0.86400
C750        C  0.31673388  0.49809279  0.03280508    -0.53800
C751        C  0.30267464  0.53212336  0.06217523     0.09300
C752        C  0.26290437  0.53313938  0.05740587     0.20300
C753        C  0.26879709  0.94593391  0.04808418    -0.54500
C754        C  0.25262139  0.98146629  0.07467372     0.09400
C755        C  0.26859162  0.99864834  0.47634484    -0.54100
C756        C  0.25410176  0.53621237  0.00019411     0.10000
H757        H  0.34378004  0.48887513  0.03395694     0.14500
H758        H  0.25106207  0.56256608  0.07740604     0.00300
H759        H  0.26442895  0.90813843  0.05497996     0.14800
H760        H  0.25295590  0.48509779  0.44759970     0.14600
C761        C  0.39627772  0.57700464  0.22248270     0.02200
C762        C  0.39604452  0.62711671  0.22734964     0.02200
C763        C  0.42268457  0.64746257  0.25346055    -0.18300
C764        C  0.45097401  0.61977836  0.27379568     0.02200
C765        C  0.45046182  0.56786824  0.27098770     0.02200
C766        C  0.42230376  0.54832081  0.24617943    -0.18300
H767        H  0.42184241  0.50992263  0.24184188     0.04200
H768        H  0.42249911  0.68621898  0.25484156     0.04200
C769        C  0.23991693  0.72071218  0.04526435     0.86400
C770        C  0.26473210  0.75050778  0.51367141    -0.53800
C771        C  0.28917779  0.77425003  0.03771742     0.09300
C772        C  0.28436838  0.76893084  0.09551961     0.20300
C773        C  0.26323970  0.68869172  0.07993120    -0.54500
C774        C  0.28617115  0.71376789  0.10683376     0.09400
C775        C  0.22400972  0.75729626  0.07944415    -0.54100
C776        C  0.24614406  0.78398411  0.10492823     0.10000
H777        H  0.26416500  0.75005167  0.47353372     0.14500
H778        H  0.30239137  0.78950111  0.11719473     0.00300
H779        H  0.26248814  0.64992573  0.08193302     0.14800
H780        H  0.19691917  0.76563270  0.08046196     0.14600
O781        O  0.48845960  0.50095638  0.25260294    -0.71800
O782        O  0.55759614  0.90185785  0.27960729    -0.72100
O783        O  0.48955328  0.90418893  0.28398655    -0.71900
O784        O  0.55733242  0.49787602  0.24989447    -0.71900
O785        O  0.55888782  0.51906075  0.32722226    -0.71900
O786        O  0.49127806  0.92735646  0.36052070    -0.71900
O787        O  0.55850515  0.92272054  0.35707936    -0.71900
O788        O  0.49036255  0.52395998  0.32919049    -0.72000
V789        V  0.52313914  0.95203051  0.26790747     1.35200
V790        V  0.52470342  0.47272544  0.34193838     1.35200
C791        C  0.47857862  0.53083241  0.28498814     0.77400
C792        C  0.56839166  0.89364088  0.32390740     0.77400
C793        C  0.48055473  0.89793524  0.32955682     0.77300
C794        C  0.56911691  0.52518533  0.28245410     0.77300
O795        O  0.56049207  0.67698886  0.26114378    -0.71800
O796        O  0.49174287  0.77409423  0.29186451    -0.72100
O797        O  0.55974519  0.77077712  0.29550264    -0.71900
O798        O  0.49197082  0.68111276  0.25849248    -0.71900
O799        O  0.49026645  0.65130907  0.33472892    -0.71900
O800        O  0.55884382  0.74009479  0.37132786    -0.71900
O801        O  0.49053961  0.74417244  0.36811872    -0.71900
O802        O  0.55891378  0.64643653  0.33706621    -0.72000
V803        V  0.52610395  0.72476975  0.27811892     1.35200
V804        V  0.52473818  0.69623899  0.35137657     1.35200
C805        C  0.57020893  0.64367820  0.29253641     0.77400
C806        C  0.48051022  0.77694103  0.33629696     0.77400
C807        C  0.56909463  0.77300865  0.34099033     0.77300
C808        C  0.48010474  0.65010025  0.28963404     0.77300
C809        C  0.94603450  0.64665182  0.32738468     0.02200
C810        C  0.95282760  0.69165644  0.34959458     0.02200
C811        C  0.93213453  0.70566201  0.39045408    -0.18300
C812        C  0.90371049  0.67997671  0.40641865     0.02200
C813        C  0.89394511  0.64054425  0.37922851     0.02200
C814        C  0.91442294  0.62578261  0.33875431    -0.18300
H815        H  0.90825827  0.59289678  0.32102211     0.04200
H816        H  0.93766339  0.73776903  0.40998024     0.04200
C817        C  0.94681545  0.94285363  0.25901680     0.02200
C818        C  0.94585423  0.89402540  0.27912559     0.02200
C819        C  0.91635784  0.86786607  0.27140464    -0.18300
C820        C  0.89167710  0.88319759  0.23609376     0.02200
C821        C  0.89371732  0.92875597  0.21174047     0.02200
C822        C  0.92026047  0.95889831  0.22504898    -0.18300
H823        H  0.92074996  0.99454525  0.20761234     0.04200
H824        H  0.91541993  0.83123095  0.28646101     0.04200
C825        C  0.33841619  0.67153052  0.22160392    -0.01900
C826        C  0.37009980  0.65834364  0.19910398     0.07800
C827        C  0.37378652  0.66437925  0.14667943    -0.02000
C828        C  0.34493322  0.67625842  0.11650770    -0.02000
C829        C  0.31352215  0.69008612  0.13871611     0.07900
C830        C  0.30989317  0.68614311  0.19129210    -0.02200
Br831      Br  0.26474968  0.69307439  0.22068280    -0.00800
Br832      Br  0.33458327  0.67124432  0.29374098    -0.00800
Br833      Br  0.34784748  0.67169162  0.04465043    -0.00800
Br834      Br  0.41887105  0.65959799  0.11677657    -0.00800
C835        C  0.38468301  0.54939534  0.13651344    -0.01900
C836        C  0.37258332  0.55623707  0.18541021     0.07800
C837        C  0.33694679  0.55702061  0.19414339    -0.02000
C838        C  0.31330582  0.55682836  0.15383334    -0.02000
C839        C  0.32526656  0.55074456  0.10361343     0.07900
C840        C  0.36172996  0.55137435  0.09571771    -0.02200
Br841      Br  0.38191420  0.56113641  0.02928724    -0.00800
Br842      Br  0.43316628  0.53581352  0.12540417    -0.00800
Br843      Br  0.26584334  0.07143250  0.17061774    -0.00800
Br844      Br  0.32107383  0.55360951  0.26269630    -0.00800
C845        C  0.31228729  0.80669337  0.45512380    -0.01900
C846        C  0.31897730  0.79259526  0.50631287     0.07800
C847        C  0.35397558  0.78375033  0.52056251    -0.02000
C848        C  0.38012048  0.78185961  0.48356120    -0.02000
C849        C  0.37276870  0.79527109  0.43321854     0.07900
C850        C  0.33838962  0.80369343  0.41873537    -0.02200
Br851      Br  0.32736899  0.81008065  0.34826106    -0.00800
Br852      Br  0.26781118  0.83464155  0.43457896    -0.00800
Br853      Br  0.42647223  0.76041351  0.50128724    -0.00800
Br854      Br  0.36867613  0.78095154  0.08969473    -0.02400
C855        C  0.34778903  0.91904324  0.39771169    -0.01900
C856        C  0.37529466  0.89830436  0.42539465     0.07800
C857        C  0.37397325  0.89593051  0.47790264    -0.02000
C858        C  0.34308145  0.90667391  0.00285874    -0.02000
C859        C  0.31511880  0.92997410  0.47612294     0.07900
C860        C  0.31707259  0.93235801  0.42206475    -0.02200
Br861      Br  0.27829849  0.94148667  0.37688660    -0.00800
Br862      Br  0.35270110  0.92939274  0.32553011    -0.00800
Br863      Br  0.34163325  0.89650664  0.07533815    -0.00800
Br864      Br  0.41603931  0.88400514  0.51515420    -0.00800
C865        C  0.73684834  0.90748245  0.42023785    -0.01900
C866        C  0.72739526  0.94391828  0.45289977     0.07800
C867        C  0.69550856  0.96828643  0.44321791    -0.02000
C868        C  0.66899514  0.94395902  0.42087254    -0.02000
C869        C  0.67672981  0.89950088  0.39937130     0.07900
C870        C  0.71145774  0.88479814  0.39354951    -0.02200
Br871      Br  0.72417017  0.83795356  0.34529134    -0.00800
Br872      Br  0.78415385  0.89913402  0.90200719    -0.00800
Br873      Br  0.62279365  0.97152623  0.42127233    -0.00800
Br874      Br  0.68954802  0.53632201  0.45249256    -0.00800
C875        C  0.66457180  0.52416540  0.13819200    -0.01900
C876        C  0.67724885  0.54106226  0.18340778     0.07800
C877        C  0.71326528  0.54552302  0.18688511    -0.02000
C878        C  0.73428572  0.54607635  0.14304715    -0.02000
C879        C  0.72200441  0.52820908  0.09778635     0.07900
C880        C  0.68748917  0.51273995  0.09873531    -0.02200
Br881      Br  0.67089202  0.96979079  0.05235790    -0.00800
Br882      Br  0.61570278  0.51654047  0.12876330    -0.00800
Br883      Br  0.78137122  0.56434964  0.14739833    -0.00800
Br884      Br  0.73413370  0.54026282  0.25227245    -0.00800
C885        C  0.87629133  0.92393995  0.12189684    -0.01900
C886        C  0.86911134  0.94166502  0.16972052     0.07800
C887        C  0.83487386  0.95552272  0.18119776    -0.02000
C888        C  0.80814122  0.94849032  0.14669721    -0.02000
C889        C  0.81562091  0.93518024  0.09744439     0.07900
C890        C  0.84940694  0.91761534  0.08774216    -0.02200
Br891      Br  0.85791651  0.88264678  0.02819536    -0.00800
Br892      Br  0.92326167  0.91140968  0.10186432    -0.00800
Br893      Br  0.76214718  0.94295243  0.17068436    -0.00800
Br894      Br  0.82528339  0.98712455  0.24290311    -0.00800
C895        C  0.83147191  0.62501501  0.40057204    -0.01900
C896        C  0.86645104  0.60921344  0.39901108     0.07800
C897        C  0.87547983  0.56297951  0.41827796    -0.02000
C898        C  0.85056361  0.53566213  0.44209167    -0.02000
C899        C  0.81876925  0.55733264  0.45802942     0.07900
C900        C  0.80752679  0.59838918  0.42922536    -0.02200
Br901      Br  0.75932932  0.60863976  0.41639062    -0.00800
Br902      Br  0.81596117  0.67994185  0.35985350    -0.00800
Br903      Br  0.85688288  0.96740938  0.43578541    -0.00800
Br904      Br  0.92181500  0.53550957  0.41366571    -0.00800
C905        C  0.67619358  0.64744291  0.15612044    -0.01900
C906        C  0.67901011  0.64136701  0.20822462     0.07800
C907        C  0.70959558  0.65159603  0.23256985    -0.02000
C908        C  0.73864744  0.66359384  0.20413121    -0.02000
C909        C  0.73553498  0.67174867  0.15137267     0.07900
C910        C  0.70537370  0.65664670  0.12766416    -0.02200
Br911      Br  0.70276663  0.64909410  0.05628892    -0.00800
Br912      Br  0.63196171  0.64315804  0.12415481    -0.00800
Br913      Br  0.78320110  0.65340925  0.23589202    -0.00800
Br914      Br  0.71185523  0.64691078  0.30470868    -0.00800
C915        C  0.66782589  0.83433074  0.50011513    -0.01900
C916        C  0.66688074  0.80976118  0.45501953     0.07800
C917        C  0.69207408  0.77406529  0.44646080    -0.02000
C918        C  0.71997376  0.76642008  0.47968798    -0.02000
C919        C  0.72402756  0.79521276  0.52211351     0.07900
C920        C  0.69635662  0.82771199  0.03307628    -0.02200
Br921      Br  0.69518516  0.85696711  0.09749956    -0.00800
Br922      Br  0.62717932  0.87047478  0.51949183    -0.00800
Br923      Br  0.74847309  0.71094119  0.46898266    -0.00800
Br924      Br  0.68663395  0.73306390  0.39047550    -0.00800
C925        C  0.85634759  0.79923779  0.14522669    -0.01900
C926        C  0.82045748  0.80386384  0.15473563     0.07800
C927        C  0.80938507  0.82714875  0.19862532    -0.02000
C928        C  0.83343750  0.84841514  0.22915466    -0.02000
C929        C  0.86833597  0.84758957  0.21624225     0.07900
C930        C  0.88005178  0.81895604  0.17737265    -0.02200
Br931      Br  0.92885779  0.80428909  0.17059713    -0.00800
Br932      Br  0.87514281  0.76614505  0.08970369    -0.00800
Br933      Br  0.81980450  0.87410088  0.29167262    -0.00800
Br934      Br  0.76134644  0.82972367  0.21810505    -0.00800
C935        C  0.86092949  0.73747309  0.44261822    -0.01900
C936        C  0.88249127  0.69656486  0.44935740     0.07800
C937        C  0.87997512  0.66794532  0.49370598    -0.02000
C938        C  0.85256108  0.67567623  0.52761294    -0.02000
C939        C  0.82762724  0.71373360  0.51800127     0.07900
C940        C  0.83310644  0.74512839  0.47540479    -0.02200
Br941      Br  0.80206694  0.79700481  0.45613593    -0.00800
Br942      Br  0.86876265  0.78237601  0.38655252    -0.00800
Br943      Br  0.85322689  0.63720814  0.08963691    -0.00800
Br944      Br  0.91638012  0.62109967  0.50977701    -0.00800
C945        C  0.23530904  0.96228832  0.16381513    -0.01900
C946        C  0.22591002  0.97174505  0.11331736     0.07800
C947        C  0.19072029  0.97529771  0.10041425    -0.02000
C948        C  0.16543663  0.97539877  0.13819946    -0.02000
C949        C  0.17469410  0.96324591  0.18822609     0.07900
C950        C  0.20976474  0.95999961  0.20126793    -0.02200
Br951      Br  0.22229963  0.95403121  0.27082938    -0.00800
Br952      Br  0.28261961  0.94654109  0.18098801    -0.00800
Br953      Br  0.11808331  0.99182256  0.12123966    -0.00800
Br954      Br  0.17636204  0.97254841  0.03137553    -0.00800
C955        C  0.23511211  0.82557898  0.18614129    -0.01900
C956        C  0.23084384  0.82459203  0.13369526     0.07800
C957        C  0.20146282  0.84841568  0.11191982    -0.02000
C958        C  0.17316089  0.86040956  0.14205985    -0.02000
C959        C  0.17656723  0.85993961  0.19455977     0.07900
C960        C  0.20752147  0.84154466  0.21673449    -0.02200
Br961      Br  0.21053751  0.83256376  0.28866605    -0.00800
Br962      Br  0.27963093  0.81147144  0.21531532    -0.00800
Br963      Br  0.12832132  0.86965278  0.11190652    -0.00800
Br964      Br  0.19808041  0.85675778  0.03943198    -0.00800
C965        C  0.22626429  0.68287993  0.46262010    -0.01900
C966        C  0.21420222  0.69664128  0.51055639     0.07800
C967        C  0.17777725  0.70139828  0.51741429    -0.02000
C968        C  0.15549392  0.70132173  0.47570148    -0.02000
C969        C  0.16850264  0.69231616  0.42744116     0.07900
C970        C  0.20425341  0.68689298  0.42081995    -0.02200
Br971      Br  0.22320831  0.69044658  0.35406703    -0.00800
Br972      Br  0.27373072  0.66033774  0.45357450    -0.00800
Br973      Br  0.10673071  0.71434522  0.48463274    -0.00800
Br974      Br  0.15660357  0.69693773  0.08359943    -0.00800
C975        C  0.19901575  0.57870482  0.38876568    -0.01900
C976        C  0.16789047  0.59085394  0.41183528     0.07800
C977        C  0.16446689  0.58583104  0.46409238    -0.02000
C978        C  0.19361989  0.57675782  0.99449545    -0.02000
C979        C  0.22569739  0.56414897  0.47203818     0.07900
C980        C  0.22822897  0.56821789  0.41824583    -0.02200
Br981      Br  0.27206287  0.56455122  0.38311848    -0.00800
Br982      Br  0.20124681  0.57772941  0.31621990    -0.00800
Br983      Br  0.18759463  0.58564041  0.06529130    -0.00800
Br984      Br  0.11894252  0.58943440  0.49302190    -0.00800
C985        C  0.09153603  0.63372296  0.83275710     0.02200
C986        C  0.09308770  0.68539438  0.83717407     0.02200
C987        C  0.12102726  0.70342022  0.86365855    -0.18300
C988        C  0.14498965  0.67326453  0.88922457     0.02200
C989        C  0.14352948  0.62350302  0.88396770     0.02200
C990        C  0.11837587  0.60476939  0.85436790    -0.18300
H991        H  0.11818814  0.56608007  0.85189706     0.04200
H992        H  0.12261573  0.74167316  0.86827699     0.04200
O993        O  0.98391396  0.00960475  0.74014723    -0.71800
O994        O  0.05250591  0.60059578  0.77212541    -0.72100
O995        O  0.05304904  0.00614061  0.74282930    -0.71900
O996        O  0.98391712  0.60438053  0.76933748    -0.71900
O997        O  0.98292834  0.57785152  0.84679720    -0.71900
O998        O  0.05169014  0.97925599  0.82017435    -0.71900
O999        O  0.05070368  0.57352676  0.84936045    -0.71900
O1000       O  0.98310416  0.98289582  0.81754549    -0.72000
V1001       V  0.01828677  0.55439253  0.75741014     1.35200
V1002       V  0.01700664  0.02907595  0.83199068     1.35200
C1003       C  0.97295566  0.97914549  0.77273080     0.77400
C1004       C  0.06227313  0.60375852  0.81726096     0.77400
C1005       C  0.06363460  0.97512545  0.77616630     0.77300
C1006       C  0.97318073  0.60960050  0.81380303     0.77300
O1007       O  0.05457164  0.82716016  0.75054053    -0.71800
O1008       O  0.98588988  0.73602178  0.78609914    -0.72100
O1009       O  0.98642161  0.83289731  0.75586527    -0.71900
O1010       O  0.05370196  0.73054975  0.78047225    -0.71900
O1011       O  0.05803927  0.75416925  0.85662474    -0.71900
O1012       O  0.98765342  0.85214702  0.83382365    -0.71900
O1013       O  0.99048762  0.75600388  0.86342176    -0.71900
O1014       O  0.05599631  0.85056411  0.82707548    -0.72000
V1015       V  0.02015636  0.78244729  0.76956936     1.35200
V1016       V  0.02303056  0.80268184  0.84373552     1.35200
C1017       C  0.06581304  0.85595984  0.78193072     0.77400
C1018       C  0.97822908  0.72820810  0.83194388     0.77400
C1019       C  0.97610817  0.86070290  0.78989862     0.77300
C1020       C  0.06621569  0.72363592  0.82403609     0.77300
C1021       C  0.09313228  0.94071881  0.76400865     0.02200
C1022       C  0.09407254  0.88864067  0.76662566     0.02200
C1023       C  0.12335245  0.86378755  0.74759976    -0.18300
C1024       C  0.15028352  0.88752900  0.72389153     0.02200
C1025       C  0.14929695  0.93810336  0.72085248     0.02200
C1026       C  0.12169178  0.96368290  0.74234079    -0.18300
H1027       H  0.12146528  0.00250627  0.73893996     0.04200
H1028       H  0.12420715  0.82491492  0.74806321     0.04200
C1029       C  0.75677779  0.70891748  0.62285076     0.86400
C1030       C  0.73251092  0.74540526  0.59590882    -0.53800
C1031       C  0.74730517  0.77764804  0.56491229     0.09300
C1032       C  0.78768088  0.77556906  0.57048935     0.20300
C1033       C  0.78143360  0.68975024  0.58209747    -0.54500
C1034       C  0.79917139  0.72439279  0.55556999     0.09400
C1035       C  0.77888015  0.74015651  0.65405893    -0.54100
C1036       C  0.79548516  0.77468016  0.62770057     0.10000
H1037       H  0.70466812  0.74308635  0.59702127     0.14500
H1038       H  0.80079765  0.80579087  0.55205442     0.00300
H1039       H  0.78437381  0.65201220  0.57515001     0.14800
H1040       H  0.78117782  0.73723435  0.69422278     0.14600
C1041       C  0.79431592  0.52803645  0.49195155     0.86400
C1042       C  0.77417239  0.49716501  0.95887752    -0.53800
C1043       C  0.75410765  0.96580597  0.48330858     0.09300
C1044       C  0.75742974  0.96544462  0.54196385     0.20300
C1045       C  0.76662338  0.55082227  0.52793465    -0.54500
C1046       C  0.74705329  0.51746114  0.55483471     0.09400
C1047       C  0.81472611  0.49460339  0.52816084    -0.54100
C1048       C  0.79678718  0.96099226  0.55427486     0.10000
H1049       H  0.77365375  0.50252085  0.91820506     0.14500
H1050       H  0.74232472  0.93782212  0.56198172     0.00300
H1051       H  0.76382466  0.58895628  0.53279287     0.14800
H1052       H  0.84164376  0.50030202  0.53610442     0.14600
C1053       C  0.65404810  0.61085525  0.73381760     0.02200
C1054       C  0.65291852  0.56195042  0.72257019     0.02200
C1055       C  0.62564455  0.53587220  0.74312737    -0.18300
C1056       C  0.59764179  0.55814807  0.76893261     0.02200
C1057       C  0.59883950  0.60900958  0.77784943     0.02200
C1058       C  0.62832029  0.63284537  0.76226048    -0.18300
H1059       H  0.62979742  0.67099468  0.76788781     0.04200
H1060       H  0.62517220  0.49794779  0.73616757     0.04200
C1061       C  0.64263762  0.82555690  0.91352070     0.02200
C1062       C  0.64897151  0.86781955  0.88498918     0.02200
C1063       C  0.62714556  0.88222652  0.84548987    -0.18300
C1064       C  0.59701035  0.85810717  0.83616539     0.02200
C1065       C  0.59320519  0.81066196  0.85872549     0.02200
C1066       C  0.61569795  0.79661474  0.89895229    -0.18300
H1067       H  0.61284085  0.76231982  0.91861227     0.04200
H1068       H  0.63109049  0.91674784  0.82659930     0.04200
C1069       C  0.45306083  0.86489144  0.84723448     0.02200
C1070       C  0.45290778  0.81274142  0.85113403     0.02200
C1071       C  0.42528515  0.79117013  0.87721982    -0.18300
C1072       C  0.40002091  0.81825077  0.90197277     0.02200
C1073       C  0.40130805  0.86850532  0.89933674     0.02200
C1074       C  0.42649349  0.89074935  0.87109391    -0.18300
H1075       H  0.42605598  0.92967963  0.86978281     0.04200
H1076       H  0.42416793  0.75244328  0.88034569     0.04200
C1077       C  0.29256591  0.96529659  0.50636520     0.86400
C1078       C  0.31673414  0.49809440  0.53280440    -0.53800
C1079       C  0.30267470  0.53212479  0.56217461     0.09300
C1080       C  0.26290444  0.53314015  0.55740550     0.20300
C1081       C  0.26879806  0.94593480  0.54808380    -0.54500
C1082       C  0.25262205  0.98146709  0.57467314     0.09400
C1083       C  0.26859120  0.99864767  0.97634545    -0.54100
C1084       C  0.25410164  0.53621267  0.50019379     0.10000
H1085       H  0.34378036  0.48887721  0.53395598     0.14500
H1086       H  0.25106191  0.56256677  0.57740554     0.00300
H1087       H  0.26443024  0.90813926  0.55497977     0.14800
H1088       H  0.25295593  0.48509798  0.94759951     0.14600
C1089       C  0.39627726  0.57700608  0.72248267     0.02200
C1090       C  0.39604427  0.62711821  0.72734894     0.02200
C1091       C  0.42268433  0.64746410  0.75345994    -0.18300
C1092       C  0.45097355  0.61977980  0.77379581     0.02200
C1093       C  0.45046112  0.56786963  0.77098826     0.02200
C1094       C  0.42230304  0.54832226  0.74617997    -0.18300
H1095       H  0.42184153  0.50992405  0.74184274     0.04200
H1096       H  0.42249903  0.68622053  0.75484057     0.04200
C1097       C  0.23991643  0.72071326  0.54526311     0.86400
C1098       C  0.26473251  0.75050676  0.01367267    -0.53800
C1099       C  0.28917740  0.77425104  0.53771621     0.09300
C1100       C  0.28436800  0.76893173  0.59551838     0.20300
C1101       C  0.26323921  0.68869272  0.57992996    -0.54500
C1102       C  0.28617075  0.71376880  0.60683248     0.09400
C1103       C  0.22400929  0.75729742  0.57944290    -0.54100
C1104       C  0.24614376  0.78398506  0.60492700     0.10000
H1105       H  0.26416536  0.75005081  0.97353498     0.14500
H1106       H  0.30239091  0.78950200  0.61719366     0.00300
H1107       H  0.26248758  0.64992672  0.58193180     0.14800
H1108       H  0.19691879  0.76563443  0.58046030     0.14600
O1109       O  0.48845854  0.50095745  0.75260346    -0.71800
O1110       O  0.55759527  0.90185888  0.77960744    -0.72100
O1111       O  0.48955243  0.90418982  0.78398715    -0.71900
O1112       O  0.55733131  0.49787716  0.74989454    -0.71900
O1113       O  0.55888709  0.51906145  0.82722246    -0.71900
O1114       O  0.49127725  0.92735748  0.86052124    -0.71900
O1115       O  0.55850437  0.92272130  0.85707959    -0.71900
O1116       O  0.49036184  0.52396108  0.82919097    -0.72000
V1117       V  0.52313818  0.95203146  0.76790788     1.35200
V1118       V  0.52470261  0.47272631  0.84193861     1.35200
C1119       C  0.47857780  0.53083359  0.78498868     0.77400
C1120       C  0.56839092  0.89364181  0.82390747     0.77400
C1121       C  0.48055396  0.89793616  0.82955745     0.77300
C1122       C  0.56911602  0.52518618  0.78245425     0.77300
O1123       O  0.56049192  0.67698964  0.76114418    -0.71800
O1124       O  0.49174283  0.77409528  0.79186491    -0.72100
O1125       O  0.55974521  0.77077799  0.79550284    -0.71900
O1126       O  0.49197062  0.68111393  0.75849285    -0.71900
O1127       O  0.49026615  0.65131031  0.83472929    -0.71900
O1128       O  0.55884402  0.74009582  0.87132813    -0.71900
O1129       O  0.49053970  0.74417361  0.86811918    -0.71900
O1130       O  0.55891353  0.64643740  0.83706665    -0.72000
V1131       V  0.52610387  0.72477073  0.77811928     1.35200
V1132       V  0.52473812  0.69624006  0.85137696     1.35200
C1133       C  0.57020865  0.64367892  0.79253685     0.77400
C1134       C  0.48051019  0.77694206  0.83629738     0.77400
C1135       C  0.56909480  0.77300962  0.84099044     0.77300
C1136       C  0.48010439  0.65010155  0.78963439     0.77300
C1137       C  0.94603553  0.64665325  0.82738705     0.02200
C1138       C  0.95282903  0.69165755  0.84959732     0.02200
C1139       C  0.93213638  0.70566298  0.89045725    -0.18300
C1140       C  0.90371213  0.67997811  0.90642162     0.02200
C1141       C  0.89394643  0.64054601  0.87923123     0.02200
C1142       C  0.91442397  0.62578431  0.83875684    -0.18300
H1143       H  0.90825903  0.59289863  0.82102455     0.04200
H1144       H  0.93766552  0.73776980  0.90998360     0.04200
C1145       C  0.94681537  0.94285437  0.75901710     0.02200
C1146       C  0.94585421  0.89402596  0.77912557     0.02200
C1147       C  0.91635808  0.86786618  0.77140372    -0.18300
C1148       C  0.89167751  0.88319751  0.73609248     0.02200
C1149       C  0.89371767  0.92875612  0.71173969     0.02200
C1150       C  0.92026053  0.95889878  0.72504885    -0.18300
H1151       H  0.92074989  0.99454581  0.70761243     0.04200
H1152       H  0.91542028  0.83123096  0.78645984     0.04200
C1153       C  0.33841571  0.67153136  0.72160277    -0.01900
C1154       C  0.37009949  0.65834497  0.69910303     0.07800
C1155       C  0.37378628  0.66438067  0.64667847    -0.02000
C1156       C  0.34493299  0.67625975  0.61650660    -0.02000
C1157       C  0.31352178  0.69008702  0.63871487     0.07900
C1158       C  0.30989269  0.68614375  0.69129083    -0.02200
Br1159     Br  0.26474910  0.69307455  0.72068133    -0.00800
Br1160     Br  0.33458253  0.67124474  0.79373980    -0.00800
Br1161     Br  0.34784741  0.67169339  0.54464930    -0.00800
Br1162     Br  0.41887086  0.65959963  0.61677575    -0.00800
C1163       C  0.38468283  0.54939692  0.63651337    -0.01900
C1164       C  0.37258303  0.55623833  0.68541011     0.07800
C1165       C  0.33694650  0.55702138  0.69414320    -0.02000
C1166       C  0.31330560  0.55682914  0.65383304    -0.02000
C1167       C  0.32526647  0.55074586  0.60361309     0.07900
C1168       C  0.36172988  0.55137599  0.59571753    -0.02200
Br1169     Br  0.38191428  0.56113853  0.52928724    -0.00800
Br1170     Br  0.43316615  0.53581529  0.62540438    -0.00800
Br1171     Br  0.26584308  0.07143263  0.67061713    -0.00800
Br1172     Br  0.32107352  0.55360933  0.76269608    -0.00800
C1173       C  0.31228739  0.80669247  0.95512495    -0.01900
C1174       C  0.31897764  0.79259409  0.00631389     0.07800
C1175       C  0.35397596  0.78374882  0.02056311    -0.02000
C1176       C  0.38012070  0.78185837  0.98356153    -0.02000
C1177       C  0.37276868  0.79527025  0.93321902     0.07900
C1178       C  0.33838952  0.80369257  0.91873622    -0.02200
Br1179     Br  0.32736854  0.81008018  0.84826205    -0.00800
Br1180     Br  0.26781122  0.83464100  0.93458082    -0.00800
Br1181     Br  0.42647260  0.76041254  0.00128706    -0.00800
Br1182     Br  0.36867548  0.78095333  0.58969425    -0.02400
C1183       C  0.34778835  0.91904255  0.89771242    -0.01900
C1184       C  0.37529392  0.89830367  0.92539556     0.07800
C1185       C  0.37397222  0.89592933  0.97790353    -0.02000
C1186       C  0.34308267  0.90667557  0.50285815    -0.02000
C1187       C  0.31511781  0.92997287  0.97612346     0.07900
C1188       C  0.31707181  0.93235718  0.92206530    -0.02200
Br1189     Br  0.27829779  0.94148594  0.87688693    -0.00800
Br1190     Br  0.35270060  0.92939216  0.82553088    -0.00800
Br1191     Br  0.34163503  0.89650924  0.57533769    -0.00800
Br1192     Br  0.41603807  0.88400402  0.01515560    -0.00800
C1193       C  0.73684853  0.90748457  0.92023550    -0.01900
C1194       C  0.72739543  0.94391953  0.95289853     0.07800
C1195       C  0.69550874  0.96828794  0.94321707    -0.02000
C1196       C  0.66899534  0.94396116  0.92087075    -0.02000
C1197       C  0.67673002  0.89950348  0.89936858     0.07900
C1198       C  0.71145795  0.88480119  0.89354619    -0.02200
Br1199     Br  0.72417036  0.83795924  0.84528535    -0.00800
Br1200     Br  0.78415360  0.89913230  0.40200909    -0.00800
Br1201     Br  0.62279400  0.97152887  0.92126970    -0.00800
Br1202     Br  0.68954801  0.53632437  0.95249120    -0.00800
C1203       C  0.66457099  0.52416550  0.63819231    -0.01900
C1204       C  0.67724813  0.54106223  0.68340812     0.07800
C1205       C  0.71326460  0.54552258  0.68688538    -0.02000
C1206       C  0.73428502  0.54607575  0.64304739    -0.02000
C1207       C  0.72200367  0.52820841  0.59778666     0.07900
C1208       C  0.68748835  0.51273951  0.59873577    -0.02200
Br1209     Br  0.67089146  0.96979069  0.55235810    -0.00800
Br1210     Br  0.61570191  0.51654132  0.62876341    -0.00800
Br1211     Br  0.78137054  0.56434899  0.64739847    -0.00800
Br1212     Br  0.73413315  0.54026165  0.75227261    -0.00800
C1213       C  0.87629139  0.92394092  0.62189612    -0.01900
C1214       C  0.86911151  0.94166543  0.66972009     0.07800
C1215       C  0.83487396  0.95552225  0.68119797    -0.02000
C1216       C  0.80814124  0.94849002  0.64669752    -0.02000
C1217       C  0.81562082  0.93518039  0.59744453     0.07900
C1218       C  0.84940684  0.91761574  0.58774192    -0.02200
Br1219     Br  0.85791599  0.88264616  0.52819567    -0.00800
Br1220     Br  0.92326169  0.91141227  0.60186251    -0.00800
Br1221     Br  0.76214722  0.94295218  0.67068480    -0.00800
Br1222     Br  0.82528341  0.98712221  0.74290440    -0.00800
C1223       C  0.83147310  0.62501716  0.90057366    -0.01900
C1224       C  0.86645223  0.60921548  0.89901345     0.07800
C1225       C  0.87548078  0.56298132  0.91827984    -0.02000
C1226       C  0.85056415  0.53566355  0.94209177    -0.02000
C1227       C  0.81876978  0.55733397  0.95802942     0.07900
C1228       C  0.80752766  0.59839109  0.92922610    -0.02200
Br1229     Br  0.75933028  0.60864233  0.91639123    -0.00800
Br1230     Br  0.81596292  0.67994423  0.85985503    -0.00800
Br1231     Br  0.85688395  0.96741032  0.93578521    -0.00800
Br1232     Br  0.92181602  0.53551138  0.91366898    -0.00800
C1233       C  0.67619317  0.64744300  0.65612188    -0.01900
C1234       C  0.67900996  0.64136673  0.70822593     0.07800
C1235       C  0.70959563  0.65159514  0.73257095    -0.02000
C1236       C  0.73864744  0.66359288  0.70413211    -0.02000
C1237       C  0.73553485  0.67174760  0.65137353     0.07900
C1238       C  0.70537329  0.65664601  0.62766538    -0.02200
Br1239     Br  0.70276567  0.64909275  0.55629038    -0.00800
Br1240     Br  0.63196100  0.64315911  0.62415673    -0.00800
Br1241     Br  0.78320114  0.65340840  0.73589284    -0.00800
Br1242     Br  0.71185550  0.64690894  0.80470975    -0.00800
C1243       C  0.66782638  0.83433228  0.00011352    -0.01900
C1244       C  0.66688226  0.80976375  0.95501716     0.07800
C1245       C  0.69207648  0.77406917  0.94645795    -0.02000
C1246       C  0.71997549  0.76642346  0.97968627    -0.02000
C1247       C  0.72402811  0.79521495  0.02211296     0.07900
C1248       C  0.69635664  0.82771069  0.53307693    -0.02200
Br1249     Br  0.69518681  0.85696768  0.59749919    -0.00800
Br1250     Br  0.62717928  0.87047555  0.01948955    -0.00800
Br1251     Br  0.74847496  0.71094469  0.96898133    -0.00800
Br1252     Br  0.68663827  0.73306987  0.89047045    -0.00800
C1253       C  0.85634798  0.79923699  0.64522512    -0.01900
C1254       C  0.82045791  0.80386263  0.65473444     0.07800
C1255       C  0.80938559  0.82714768  0.69862405    -0.02000
C1256       C  0.83343808  0.84841398  0.72915344    -0.02000
C1257       C  0.86833647  0.84758939  0.71624044     0.07900
C1258       C  0.88005224  0.81895635  0.67737034    -0.02200
Br1259     Br  0.92885834  0.80429110  0.67059361    -0.00800
Br1260     Br  0.87514287  0.76614250  0.58970297    -0.00800
Br1261     Br  0.81980539  0.87409734  0.79167263    -0.00800
Br1262     Br  0.76134693  0.82972286  0.71810349    -0.00800
C1263       C  0.86093138  0.73747518  0.94262046    -0.01900
C1264       C  0.88249282  0.69656665  0.94936003     0.07800
C1265       C  0.87997620  0.66794722  0.99370856    -0.02000
C1266       C  0.85256187  0.67567837  0.02761492    -0.02000
C1267       C  0.82762817  0.71373582  0.01800257     0.07900
C1268       C  0.83310803  0.74513078  0.97540642    -0.02200
Br1269     Br  0.80206941  0.79700827  0.95613743    -0.00800
Br1270     Br  0.86876549  0.78237816  0.88655515    -0.00800
Br1271     Br  0.85322644  0.63720529  0.58963444    -0.00800
Br1272     Br  0.91638097  0.62110144  0.00978038    -0.00800
C1273       C  0.23530914  0.96228881  0.66381429    -0.01900
C1274       C  0.22591045  0.97174585  0.61331643     0.07800
C1275       C  0.19072080  0.97529936  0.60041297    -0.02000
C1276       C  0.16543697  0.97540119  0.63819789    -0.02000
C1277       C  0.17469403  0.96324778  0.68822451     0.07900
C1278       C  0.20976459  0.96000051  0.70126678    -0.02200
Br1279     Br  0.22229905  0.95403106  0.77082838    -0.00800
Br1280     Br  0.28261953  0.94654093  0.68098766    -0.00800
Br1281     Br  0.11808389  0.99182625  0.62123769    -0.00800
Br1282     Br  0.17636275  0.97254955  0.53137426    -0.00800
C1283       C  0.23511127  0.82557998  0.68613956    -0.01900
C1284       C  0.23084387  0.82459351  0.63369338     0.07800
C1285       C  0.20146353  0.84841790  0.61191696    -0.02000
C1286       C  0.17316117  0.86041221  0.64205603    -0.02000
C1287       C  0.17656655  0.85994146  0.69455616     0.07900
C1288       C  0.20752021  0.84154566  0.71673187    -0.02200
Br1289     Br  0.21053488  0.83256382  0.78866346    -0.00800
Br1290     Br  0.27962956  0.81147175  0.71531499    -0.00800
Br1291     Br  0.12832225  0.86965672  0.61190094    -0.00800
Br1292     Br  0.19808253  0.85675968  0.53942895    -0.00800
C1293       C  0.22626472  0.68287933  0.96262113    -0.01900
C1294       C  0.21420277  0.69664015  0.01055768     0.07800
C1295       C  0.17777786  0.70139739  0.01741573    -0.02000
C1296       C  0.15549450  0.70132215  0.97570290    -0.02000
C1297       C  0.16850306  0.69231686  0.92744242     0.07900
C1298       C  0.20425380  0.68689319  0.92082106    -0.02200
Br1299     Br  0.22320857  0.69044710  0.85406805    -0.00800
Br1300     Br  0.27373114  0.66033718  0.95357510    -0.00800
Br1301     Br  0.10673153  0.71434736  0.98463441    -0.00800
Br1302     Br  0.15660283  0.69693979  0.58359794    -0.00800
C1303       C  0.19901591  0.57870535  0.88876623    -0.01900
C1304       C  0.16789072  0.59085478  0.91183593     0.07800
C1305       C  0.16446710  0.58583160  0.96409301    -0.02000
C1306       C  0.19361977  0.57675816  0.49449485    -0.02000
C1307       C  0.22569751  0.56414877  0.97203866     0.07900
C1308       C  0.22822911  0.56821805  0.91824632    -0.02200
Br1309     Br  0.27206298  0.56455107  0.88311881    -0.00800
Br1310     Br  0.20124692  0.57772996  0.81622045    -0.00800
Br1311     Br  0.18759459  0.58564207  0.56529049    -0.00800
Br1312     Br  0.11894277  0.58943619  0.99302259    -0.00800
loop_ 
_geom_bond_atom_site_label_1 
_geom_bond_atom_site_label_2 
_geom_bond_distance 
_geom_bond_site_symmetry_2 
_ccdc_geom_bond_type 
C1            C2   1.458       .  A
C1            C6   1.407       .  A
C1           C20   1.507       .  S
C2            C3   1.417       .  A
C2           C36   1.498       .  S
C3            C4   1.393       .  A
C3            H8   1.085       .  S
C4            C5   1.407       .  A
C4          C313   1.498       .  S
C5            C6   1.389       .  A
C5          C320   1.472       .  S
C6            H7   1.087       .  S
O9           C19   1.276       .  A
O9          V673   1.935   1_655  S
O10          C20   1.270       .  A
O10          V17   1.942       .  S
O11          C21   1.274       .  A
O11         V673   1.924       .  S
O12          C22   1.267       .  A
O12          V17   1.931   1_655  S
O13          C22   1.272       .  A
O13         V674   1.917   1_655  S
O14          C21   1.268       .  A
O14          V18   1.936       .  S
O15          C20   1.272       .  A
O15         V674   1.911       .  S
O16          C19   1.269       .  A
O16          V18   1.931   1_655  S
V17         O665   1.936   1_455  S
V17         O667   1.924       .  S
V17         V674   2.081       .  T
V18         O669   1.918   1_455  S
V18         O671   1.911       .  S
V18         V673   2.081       .  T
C19         C161   1.519       .  S
C21          C37   1.511       .  S
C22         C153   1.504       .  S
O23          C33   1.274       .  A
O23          V31   1.920       .  S
O24          C34   1.269       .  A
O24          V31   1.934   1_655  S
O25          C35   1.272       .  A
O25          V31   1.914   1_655  S
O26          C36   1.265       .  A
O26          V31   1.927       .  S
O27          C36   1.273       .  A
O27          V32   1.907       .  S
O28          C35   1.266       .  A
O28          V32   1.924   1_655  S
O29          C34   1.272       .  A
O29          V32   1.911   1_655  S
O30          C33   1.266       .  A
O30          V32   1.928       .  S
V31          V32   2.082       .  T
C33          C38   1.502       .  S
C34         C154   1.510       .  S
C35         C162   1.494       .  S
C37          C38   1.454       .  A
C37          C42   1.415       .  A
C38          C39   1.414       .  A
C39          C40   1.398       .  A
C39          H44   1.086       .  S
C40          C41   1.412       .  A
C40         C303   1.495       .  S
C41          C42   1.401       .  A
C41         C293   1.492       .  S
C42          H43   1.085       .  S
C45          C46   1.523       .  S
C45          C51   1.521       .  S
C45          C49   1.545       .  S
C45         C253   1.530       .  S
C46          H53   1.088       .  S
C46          C47   1.343       .  D
C47          C48   1.577       .  S
C47         C591   1.513       .  S
C48          C52   1.555       .  S
C48          C50   1.549       .  S
C48          H54   1.102       .  S
C49          H55   1.080       .  S
C49          C50   1.381       .  D
C50         C611   1.519       .  S
C51          H56   1.074       .  S
C51          C52   1.354       .  D
C52         C270   1.497       .  S
C57          C63   1.520   1_546  S
C57          C61   1.573   1_556  S
C57         C386   1.501   1_545  S
C57         C571   1.546       .  S
C58         C385   1.501   1_565  S
C58          H65   1.088   1_565  S
C58        C1043   1.342       .  D
C59          C60   1.568   1_556  S
C59        C1042   1.342       .  D
C59         C538   1.485       .  S
C60          C64   1.566       .  S
C60         C718   1.546       .  S
C60          H66   1.107       .  S
C61          H67   1.080       .  S
C61          C62   1.401       .  D
C62         C716   1.546   1_545  S
C62         C223   1.532       .  S
C63          H68   1.088   1_565  S
C63         C720   1.357       .  D
C64         C719   1.357       .  D
C64         C233   1.510       .  S
C69          C70   1.414       .  A
C69          C74   1.393       .  A
C69         C250   1.466       .  S
C70          C71   1.408       .  A
C70         C220   1.525       .  S
C71          C72   1.423       .  A
C71          H76   1.084   1_545  S
C72          C73   1.453       .  A
C72         C138   1.503       .  S
C73          C74   1.402       .  A
C73         C149   1.509       .  S
C74          H75   1.087       .  S
C77          C78   1.409       .  A
C77          C82   1.413       .  A
C77         C260   1.498       .  S
C78          C79   1.392       .  A
C78         C213   1.483       .  S
C79          C80   1.402       .  A
C79          H84   1.087       .  S
C80          C81   1.447       .  A
C80         C136   1.492       .  S
C81          C82   1.419       .  A
C81         C151   1.526       .  S
C82          H83   1.084       .  S
C85          C86   1.458       .  A
C85          C90   1.403       .  A
C85         C137   1.502       .  S
C86          C87   1.419       .  A
C86         C150   1.502       .  S
C87          C88   1.397       .  A
C87          H92   1.085       .  S
C88          C89   1.407       .  A
C88         C193   1.495       .  S
C89          C90   1.385       .  A
C89         C200   1.475       .  S
C90          H91   1.087       .  S
C93          C97   1.539       .  S
C93         C750   1.531       .  S
C93         C427   1.502   1_554  S
C93         C531   1.545   1_554  S
C94         C749   1.531       .  S
C94         H101   1.074       .  S
C94          C95   1.354   1_565  D
C95          C96   1.552       .  S
C95         C183   1.533       .  S
C96         C100   1.562       .  S
C96         C754   1.563   1_545  S
C96         H102   1.085       .  S
C97         H103   1.085       .  S
C97          C98   1.375       .  D
C98         C752   1.563       .  S
C98         C290   1.486       .  S
C99         C421   1.502       .  S
C99         H760   1.069       .  S
C99        C1084   1.354       .  D
C100       C1083   1.354   1_544  D
C100        C651   1.512   1_554  S
H104        C755   1.069       .  S
C105        C106   1.412       .  A
C105        C110   1.403       .  A
C105        C180   1.502       .  S
C106        C107   1.401       .  A
C106        C170   1.494       .  S
C107        C108   1.417       .  A
C107        H112   1.085       .  S
C108        C109   1.457       .  A
C108        C152   1.512       .  S
C109        C110   1.419       .  A
C109        C135   1.514       .  S
C110        H111   1.085       .  S
C113        C119   1.510       .  S
C113        C117   1.534       .  S
C113        C442   1.528       .  S
C113        C638   1.554       .  S
C114        C441   1.528       .  S
C114        H121   1.071       .  S
C114        C443   1.357       .  D
C115        C116   1.553       .  S
C115        C442   1.357       .  D
C115        C518   1.521       .  S
C116        C120   1.552       .  S
C116        C118   1.558       .  S
C116        H122   1.103       .  S
C117        H123   1.084       .  S
C117        C118   1.376       .  D
C118        C173   1.483       .  S
C119        H124   1.071       .  S
C119        C120   1.361       .  D
C120        C300   1.498       .  S
O125        C135   1.273       .  A
O125        V789   1.918   1_545  S
O126        C136   1.264       .  A
O126        V133   1.919       .  S
O127        C137   1.270       .  A
O127        V133   1.940       .  S
O128        C138   1.276   1_565  A
O128        V789   1.927       .  S
O129        C138   1.264       .  A
O129        V134   1.921   1_545  S
O130        C137   1.270       .  A
O130        V790   1.900       .  S
O131        C136   1.273       .  A
O131        V790   1.915       .  S
O132        C135   1.270       .  A
O132        V134   1.941   1_545  S
V133        O781   1.918       .  S
V133        O784   1.927       .  S
V133        V790   2.082       .  T
V134        O786   1.900       .  S
V134        O787   1.915       .  S
V134        V789   2.082       .  T
O139        C149   1.274       .  A
O139        V147   1.919       .  S
O140        C150   1.265       .  A
O140        V147   1.928       .  S
O141        C151   1.271       .  A
O141        V147   1.940       .  S
O142        C152   1.275       .  A
O142        V147   1.925       .  S
O143        C152   1.268       .  A
O143        V148   1.936       .  S
O144        C151   1.275       .  A
O144        V148   1.930       .  S
O145        C150   1.274       .  A
O145        V148   1.916       .  S
O146        C149   1.268       .  A
O146        V148   1.936       .  S
V147        V148   2.081       .  T
C153        C154   1.445       .  A
C153        C158   1.408       .  A
C154        C155   1.411       .  A
C155        C156   1.398       .  A
C155        H160   1.084       .  S
C156        C157   1.408       .  A
C156        C280   1.488       .  S
C157        C158   1.404       .  A
C157        C240   1.490       .  S
C158        H159   1.085       .  S
C161        C162   1.448       .  A
C161        C166   1.423       .  A
C162        C163   1.404       .  A
C163        C164   1.390       .  A
C163        H168   1.087       .  S
C164        C165   1.411       .  A
C164        C273   1.486       .  S
C165        C166   1.412       .  A
C165        C230   1.500       .  S
C166        H167   1.084       .  S
C169        C170   1.412       .  A
C169        C174   1.412       .  A
C169       Br176   1.927       .  S
C170        C171   1.408       .  A
C171        C172   1.404       .  A
C171       Br178   1.926       .  S
C172        C173   1.403       .  A
C172       Br177   1.927       .  S
C173        C174   1.408       .  A
C174       Br175   1.927       .  S
C179        C180   1.402       .  A
C179        C184   1.407       .  A
C179       Br186   1.934       .  S
C180        C181   1.404       .  A
C181        C182   1.416       .  A
C181       Br188   1.927       .  S
C182        C183   1.430       .  A
C182       Br843   1.928       .  S
C183        C184   1.434       .  A
C184       Br185   1.948       .  S
Br187       C838   1.928       .  S
C189        C190   1.427       .  A
C189        C194   1.404       .  A
C189       Br196   1.942       .  S
C190        C191   1.424       .  A
C190        C443   1.521       .  S
C191        C192   1.415       .  A
C191       Br526   1.928       .  S
C192        C193   1.406       .  A
C192       Br197   1.932       .  S
C193        C194   1.402       .  A
C194       Br195   1.928       .  S
Br198       C519   1.928       .  S
C199        C200   1.396       .  A
C199        C204   1.403       .  A
C199       Br206   1.944       .  S
C200        C201   1.399       .  A
C201        C530   1.400       .  A
C201       Br208   1.928       .  S
C202        C529   1.400   1_554  A
C202        C531   1.424   1_554  A
C202       Br207   1.942       .  S
C203        C204   1.441       .  A
C203        C530   1.424       .  A
C203        C421   1.545       .  S
C204       Br205   1.936       .  S
C209        C210   1.403       .  A
C209        C214   1.404       .  A
C209       Br544   1.910       .  S
C210        C211   1.411       .  A
C210        C387   1.485       .  S
C211        C212   1.404       .  A
C211       Br874   1.935       .  S
C212        C213   1.411       .  A
C212       Br217   1.928       .  S
C213        C214   1.407       .  A
C214       Br215   1.922       .  S
Br216       C537   1.910       .  S
Br218       C867   1.935   1_545  S
C219        C220   1.409       .  A
C219        C224   1.415       .  A
C219       Br226   1.939       .  S
C220        C221   1.415       .  A
C221        C222   1.424       .  A
C221       Br228   1.923       .  S
C222        C223   1.415       .  A
C222       Br227   1.925       .  S
C223        C224   1.426       .  A
C224       Br881   1.893   1_545  S
Br225       C880   1.893       .  S
C229        C230   1.409       .  A
C229        C234   1.409       .  A
C229       Br236   1.925       .  S
C230        C231   1.409       .  A
C231        C232   1.415       .  A
C231       Br238   1.926       .  S
C232        C233   1.405       .  A
C232       Br237   1.908       .  S
C233        C234   1.412       .  A
C234       Br235   1.918       .  S
C239        C240   1.415       .  A
C239        C244   1.417       .  A
C239       Br246   1.923       .  S
C240        C241   1.404       .  A
C241        C242   1.393       .  A
C241       Br248   1.937       .  S
C242        C243   1.427       .  A
C242       Br903   1.927   1_545  S
C243        C244   1.411       .  A
C243        C385   1.546       .  S
C244       Br245   1.915       .  S
Br247       C898   1.927       .  S
C249        C250   1.396       .  A
C249        C254   1.390       .  A
C249       Br256   1.932       .  S
C250        C251   1.401       .  A
C251        C252   1.403       .  A
C251       Br258   1.924       .  S
C252        C253   1.420       .  A
C252       Br257   1.937       .  S
C253        C254   1.420       .  A
C254       Br255   1.925       .  S
C259        C260   1.409       .  A
C259        C592   1.419       .  A
C259       Br266   1.924       .  S
C260        C261   1.396       .  A
C261        C262   1.407       .  A
C261       Br268   1.934       .  S
C262        C263   1.426       .  A
C262       Br267   1.902       .  S
C263        C592   1.419       .  A
C263        C375   1.513       .  S
C264        C587   1.419       .  A
C264        C591   1.419       .  A
C264       Br265   1.930       .  S
C269        C270   1.420       .  A
C269        C274   1.403       .  A
C269       Br276   1.905       .  S
C270        C271   1.419       .  A
C271        C272   1.406       .  A
C271       Br278   1.937       .  S
C272        C273   1.399       .  A
C272       Br277   1.906       .  S
C273        C274   1.399       .  A
C274       Br275   1.936       .  S
C279        C280   1.398       .  A
C279        C284   1.404       .  A
C279       Br286   1.944       .  S
C280        C281   1.406       .  A
C281        C282   1.412       .  A
C281       Br288   1.929       .  S
C282        C283   1.428       .  A
C282       Br615   1.935       .  S
C283        C284   1.428       .  A
C283        C378   1.519       .  S
C284       Br285   1.906       .  S
Br287       C610   1.935       .  S
C289        C290   1.408       .  A
C289        C294   1.408       .  A
C289       Br296   1.928       .  S
C290        C291   1.411       .  A
C291        C292   1.405       .  A
C291       Br298   1.930       .  S
C292        C293   1.407       .  A
C292       Br297   1.932       .  S
C293        C294   1.408       .  A
C294       Br295   1.918       .  S
C299        C300   1.409       .  A
C299        C304   1.415       .  A
C299       Br306   1.921       .  S
C300        C301   1.415       .  A
C301        C302   1.399       .  A
C301       Br308   1.941       .  S
C302        C303   1.405       .  A
C302       Br307   1.927       .  S
C303        C304   1.413       .  A
C304       Br305   1.927       .  S
C309        C310   1.422       .  A
C309        C314   1.405       .  A
C309       Br316   1.945       .  S
C310        C311   1.430       .  A
C310        C441   1.554       .  S
C311        C312   1.412       .  A
C311       Br646   1.946       .  S
C312        C313   1.409       .  A
C312       Br317   1.933       .  S
C313        C314   1.404       .  A
C314       Br315   1.924       .  S
Br318       C639   1.946       .  S
C319        C320   1.393       .  A
C319        C324   1.398       .  A
C319       Br326   1.936       .  S
C320        C321   1.401       .  A
C321        C650   1.405       .  A
C321       Br328   1.930       .  S
C322        C649   1.405       .  A
C322        C651   1.421       .  A
C322       Br327   1.925   1_556  S
C323        C324   1.437       .  A
C323        C650   1.421       .  A
C323        C428   1.512       .  S
C324       Br325   1.944       .  S
C329        C330   1.458       .  A
C329        C334   1.407       .  A
C329        C348   1.507       .  S
C330        C331   1.417       .  A
C330        C364   1.498       .  S
C331        C332   1.393       .  A
C331        H336   1.085       .  S
C332        C333   1.407       .  A
C332        C641   1.498       .  S
C333        C334   1.389       .  A
C333        C648   1.472       .  S
C334        H335   1.087       .  S
O337        C347   1.276       .  A
O337       V1001   1.935   1_655  S
O338        C348   1.270       .  A
O338        V345   1.942       .  S
O339        C349   1.274       .  A
O339       V1001   1.924       .  S
O340        C350   1.267       .  A
O340        V345   1.931   1_655  S
O341        C350   1.272       .  A
O341       V1002   1.917   1_655  S
O342        C349   1.268       .  A
O342        V346   1.936       .  S
O343        C348   1.272       .  A
O343       V1002   1.911       .  S
O344        C347   1.269       .  A
O344        V346   1.931   1_655  S
V345        O993   1.936   1_455  S
V345        O995   1.924       .  S
V345       V1002   2.081       .  T
V346        O997   1.918   1_455  S
V346        O999   1.911       .  S
V346       V1001   2.081       .  T
C347        C489   1.519       .  S
C349        C365   1.511       .  S
C350        C481   1.504       .  S
O351        C361   1.274       .  A
O351        V359   1.920       .  S
O352        C362   1.269       .  A
O352        V359   1.934   1_655  S
O353        C363   1.272       .  A
O353        V359   1.914   1_655  S
O354        C364   1.265       .  A
O354        V359   1.927       .  S
O355        C364   1.273       .  A
O355        V360   1.907       .  S
O356        C363   1.266       .  A
O356        V360   1.924   1_655  S
O357        C362   1.272       .  A
O357        V360   1.911   1_655  S
O358        C361   1.266       .  A
O358        V360   1.928       .  S
V359        V360   2.082       .  T
C361        C366   1.502       .  S
C362        C482   1.510       .  S
C363        C490   1.494       .  S
C365        C366   1.454       .  A
C365        C370   1.415       .  A
C366        C367   1.414       .  A
C367        C368   1.398       .  A
C367        H372   1.086       .  S
C368        C369   1.412       .  A
C368        C631   1.495       .  S
C369        C370   1.401       .  A
C369        C621   1.492       .  S
C370        H371   1.085       .  S
C373        C374   1.523       .  S
C373        C379   1.521       .  S
C373        C377   1.545       .  S
C373        C581   1.530       .  S
C374        H381   1.088       .  S
C374        C375   1.343       .  D
C375        C376   1.577       .  S
C376        C380   1.555       .  S
C376        C378   1.549       .  S
C376        H382   1.102       .  S
C377        H383   1.080       .  S
C377        C378   1.381       .  D
C379        H384   1.074       .  S
C379        C380   1.354       .  D
C380        C598   1.497       .  S
C385        C391   1.520   1_545  S
C385        C389   1.573       .  S
C386        H393   1.088   1_565  S
C386        C715   1.342       .  D
C387        C388   1.568       .  S
C387        C714   1.342       .  D
C388        C392   1.566       .  S
C388       C1046   1.546       .  S
C388        H394   1.107       .  S
C389        H395   1.080       .  S
C389        C390   1.401       .  D
C390       C1044   1.546   1_545  S
C390        C551   1.532       .  S
C391        H396   1.088   1_565  S
C391       C1048   1.357       .  D
C392       C1047   1.357       .  D
C392        C561   1.510       .  S
C397        C398   1.414       .  A
C397        C402   1.393       .  A
C397        C578   1.466       .  S
C398        C399   1.408       .  A
C398        C548   1.525       .  S
C399        C400   1.423       .  A
C399        H404   1.084   1_545  S
C400        C401   1.453       .  A
C400        C466   1.503       .  S
C401        C402   1.402       .  A
C401        C477   1.509       .  S
C402        H403   1.087       .  S
C405        C406   1.409       .  A
C405        C410   1.413       .  A
C405        C588   1.498       .  S
C406        C407   1.392       .  A
C406        C541   1.483       .  S
C407        C408   1.402       .  A
C407        H412   1.087       .  S
C408        C409   1.447       .  A
C408        C464   1.492       .  S
C409        C410   1.419       .  A
C409        C479   1.526       .  S
C410        H411   1.084       .  S
C413        C414   1.458       .  A
C413        C418   1.403       .  A
C413        C465   1.502       .  S
C414        C415   1.419       .  A
C414        C478   1.502       .  S
C415        C416   1.397       .  A
C415        H420   1.085       .  S
C416        C417   1.407       .  A
C416        C521   1.495       .  S
C417        C418   1.385       .  A
C417        C528   1.475       .  S
C418        H419   1.087       .  S
C421       C1078   1.531       .  S
C421        C425   1.539       .  S
C422       C1077   1.531       .  S
C422        H429   1.074       .  S
C422        C423   1.354   1_565  D
C423        C424   1.552       .  S
C423        C511   1.533       .  S
C424        C428   1.562       .  S
C424       C1082   1.563   1_545  S
C424        H430   1.085       .  S
C425        H431   1.085       .  S
C425        C426   1.375       .  D
C426       C1080   1.563       .  S
C426        C618   1.486       .  S
C427       H1088   1.069       .  S
C427        C756   1.354   1_556  D
C428        C755   1.354   1_545  D
H432       C1083   1.069       .  S
C433        C434   1.412       .  A
C433        C438   1.403       .  A
C433        C508   1.502       .  S
C434        C435   1.401       .  A
C434        C498   1.494       .  S
C435        C436   1.417       .  A
C435        H440   1.085       .  S
C436        C437   1.457       .  A
C436        C480   1.512       .  S
C437        C438   1.419       .  A
C437        C463   1.514       .  S
C438        H439   1.085       .  S
C441        C447   1.510       .  S
C441        C445   1.534       .  S
C442        H449   1.071   1_554  S
C443        C444   1.553       .  S
C444        C448   1.552       .  S
C444        C446   1.558       .  S
C444        H450   1.103       .  S
C445        H451   1.084       .  S
C445        C446   1.376       .  D
C446        C501   1.483       .  S
C447        H452   1.071       .  S
C447        C448   1.361       .  D
C448        C628   1.498       .  S
O453        C463   1.273       .  A
O453       V1117   1.918   1_545  S
O454        C464   1.264       .  A
O454        V461   1.919       .  S
O455        C465   1.270       .  A
O455        V461   1.940       .  S
O456        C466   1.276   1_565  A
O456       V1117   1.927       .  S
O457        C466   1.264       .  A
O457        V462   1.921   1_545  S
O458        C465   1.270       .  A
O458       V1118   1.900       .  S
O459        C464   1.273       .  A
O459       V1118   1.915       .  S
O460        C463   1.270       .  A
O460        V462   1.941   1_545  S
V461       O1109   1.918       .  S
V461       O1112   1.927       .  S
V461       V1118   2.082       .  T
V462       O1114   1.900       .  S
V462       O1115   1.915       .  S
V462       V1117   2.082       .  T
O467        C477   1.274       .  A
O467        V475   1.919       .  S
O468        C478   1.265       .  A
O468        V475   1.928       .  S
O469        C479   1.271       .  A
O469        V475   1.940       .  S
O470        C480   1.275       .  A
O470        V475   1.925       .  S
O471        C480   1.268       .  A
O471        V476   1.936       .  S
O472        C479   1.275       .  A
O472        V476   1.930       .  S
O473        C478   1.274       .  A
O473        V476   1.916       .  S
O474        C477   1.268       .  A
O474        V476   1.936       .  S
V475        V476   2.081       .  T
C481        C482   1.445       .  A
C481        C486   1.408       .  A
C482        C483   1.411       .  A
C483        C484   1.398       .  A
C483        H488   1.084       .  S
C484        C485   1.408       .  A
C484        C608   1.488       .  S
C485        C486   1.404       .  A
C485        C568   1.490       .  S
C486        H487   1.085       .  S
C489        C490   1.448       .  A
C489        C494   1.423       .  A
C490        C491   1.404       .  A
C491        C492   1.390       .  A
C491        H496   1.087       .  S
C492        C493   1.411       .  A
C492        C601   1.486       .  S
C493        C494   1.412       .  A
C493        C558   1.500       .  S
C494        H495   1.084       .  S
C497        C498   1.412       .  A
C497        C502   1.412       .  A
C497       Br504   1.927       .  S
C498        C499   1.408       .  A
C499        C500   1.404       .  A
C499       Br506   1.926       .  S
C500        C501   1.403       .  A
C500       Br505   1.927       .  S
C501        C502   1.408       .  A
C502       Br503   1.927       .  S
C507        C508   1.402       .  A
C507        C512   1.407       .  A
C507       Br514   1.934       .  S
C508        C509   1.404       .  A
C509        C510   1.416       .  A
C509       Br516   1.927       .  S
C510        C511   1.430       .  A
C510      Br1171   1.928       .  S
C511        C512   1.434       .  A
C512       Br513   1.948       .  S
Br515      C1166   1.928       .  S
C517        C518   1.427   1_556  A
C517        C522   1.404       .  A
C517       Br524   1.942       .  S
C518        C519   1.424       .  A
C519        C520   1.415   1_554  A
C520        C521   1.406       .  A
C520       Br525   1.932   1_556  S
C521        C522   1.402       .  A
C522       Br523   1.928       .  S
C527        C528   1.396       .  A
C527        C532   1.403       .  A
C527       Br534   1.944       .  S
C528        C529   1.399       .  A
C529       Br536   1.928   1_556  S
C530       Br535   1.942       .  S
C531        C532   1.441       .  A
C532       Br533   1.936       .  S
C537        C538   1.403       .  A
C537        C542   1.404       .  A
C538        C539   1.411       .  A
C539        C540   1.404       .  A
C539      Br1202   1.935       .  S
C540        C541   1.411       .  A
C540       Br545   1.928       .  S
C541        C542   1.407       .  A
C542       Br543   1.922       .  S
Br546      C1195   1.935   1_545  S
C547        C548   1.409       .  A
C547        C552   1.415       .  A
C547       Br554   1.939       .  S
C548        C549   1.415       .  A
C549        C550   1.424       .  A
C549       Br556   1.923       .  S
C550        C551   1.415       .  A
C550       Br555   1.925       .  S
C551        C552   1.426       .  A
C552      Br1209   1.893   1_545  S
Br553      C1208   1.893       .  S
C557        C558   1.409       .  A
C557        C562   1.409       .  A
C557       Br564   1.925       .  S
C558        C559   1.409       .  A
C559        C560   1.415       .  A
C559       Br566   1.926       .  S
C560        C561   1.405       .  A
C560       Br565   1.908       .  S
C561        C562   1.412       .  A
C562       Br563   1.918       .  S
C567        C568   1.415       .  A
C567        C572   1.417       .  A
C567       Br574   1.923       .  S
C568        C569   1.404       .  A
C569        C570   1.393       .  A
C569       Br576   1.937       .  S
C570        C571   1.427       .  A
C570      Br1231   1.927   1_545  S
C571        C572   1.411       .  A
C572       Br573   1.915       .  S
Br575      C1226   1.927       .  S
C577        C578   1.396       .  A
C577        C582   1.390       .  A
C577       Br584   1.932       .  S
C578        C579   1.401       .  A
C579        C580   1.403       .  A
C579       Br586   1.924       .  S
C580        C581   1.420       .  A
C580       Br585   1.937       .  S
C581        C582   1.420       .  A
C582       Br583   1.925       .  S
C587        C588   1.409   1_554  A
C587       Br594   1.924       .  S
C588        C589   1.396       .  A
C589        C590   1.407       .  A
C589       Br596   1.934       .  S
C590        C591   1.426   1_556  A
C590       Br595   1.902       .  S
C592       Br593   1.930       .  S
C597        C598   1.420       .  A
C597        C602   1.403       .  A
C597       Br604   1.905       .  S
C598        C599   1.419       .  A
C599        C600   1.406       .  A
C599       Br606   1.937       .  S
C600        C601   1.399       .  A
C600       Br605   1.906       .  S
C601        C602   1.399       .  A
C602       Br603   1.936       .  S
C607        C608   1.398       .  A
C607        C612   1.404       .  A
C607       Br614   1.944       .  S
C608        C609   1.406       .  A
C609        C610   1.412   1_556  A
C609       Br616   1.929   1_556  S
C610        C611   1.428       .  A
C611        C612   1.428   1_554  A
C612       Br613   1.906       .  S
C617        C618   1.408       .  A
C617        C622   1.408       .  A
C617       Br624   1.928       .  S
C618        C619   1.411       .  A
C619        C620   1.405       .  A
C619       Br626   1.930       .  S
C620        C621   1.407       .  A
C620       Br625   1.932       .  S
C621        C622   1.408       .  A
C622       Br623   1.918       .  S
C627        C628   1.409       .  A
C627        C632   1.415       .  A
C627       Br634   1.921       .  S
C628        C629   1.415       .  A
C629        C630   1.399       .  A
C629       Br636   1.941       .  S
C630        C631   1.405       .  A
C630       Br635   1.927       .  S
C631        C632   1.413       .  A
C632       Br633   1.927       .  S
C637        C638   1.422   1_556  A
C637        C642   1.405       .  A
C637       Br644   1.945       .  S
C638        C639   1.430       .  A
C639        C640   1.412   1_554  A
C640        C641   1.409       .  A
C640       Br645   1.933       .  S
C641        C642   1.404       .  A
C642       Br643   1.924       .  S
C647        C648   1.393       .  A
C647        C652   1.398       .  A
C647       Br654   1.936       .  S
C648        C649   1.401       .  A
C649       Br656   1.930       .  S
C650       Br655   1.925       .  S
C651        C652   1.437       .  A
C652       Br653   1.944       .  S
C657        C658   1.458       .  A
C657        C662   1.407       .  A
C657        C676   1.507       .  S
C658        C659   1.417       .  A
C658        C692   1.498       .  S
C659        C660   1.393       .  A
C659        H664   1.085       .  S
C660        C661   1.407       .  A
C660        C969   1.498       .  S
C661        C662   1.390       .  A
C661        C976   1.472       .  S
C662        H663   1.087       .  S
O665        C675   1.276   1_545  A
O666        C676   1.270       .  A
O666        V673   1.942       .  S
O667        C677   1.274   1_545  A
O668        C678   1.267       .  A
O668        V673   1.931   1_655  S
O669        C678   1.272       .  A
O670        C677   1.268       .  A
O670        V674   1.936   1_565  S
O671        C676   1.272       .  A
O672        C675   1.269       .  A
O672        V674   1.931   1_665  S
C675        C817   1.519       .  S
C677        C693   1.511       .  S
C678        C809   1.504       .  S
O679        C689   1.274       .  A
O679        V687   1.920       .  S
O680        C690   1.269       .  A
O680        V687   1.934   1_655  S
O681        C691   1.272       .  A
O681        V687   1.914   1_655  S
O682        C692   1.265       .  A
O682        V687   1.927       .  S
O683        C692   1.273       .  A
O683        V688   1.907       .  S
O684        C691   1.266       .  A
O684        V688   1.924   1_655  S
O685        C690   1.272       .  A
O685        V688   1.910   1_655  S
O686        C689   1.266       .  A
O686        V688   1.927       .  S
V687        V688   2.082       .  T
C689        C694   1.501       .  S
C690        C810   1.509       .  S
C691        C818   1.494       .  S
C693        C694   1.454       .  A
C693        C698   1.415       .  A
C694        C695   1.414       .  A
C695        C696   1.398       .  A
C695        H700   1.086       .  S
C696        C697   1.412       .  A
C696        C959   1.494       .  S
C697        C698   1.401       .  A
C697        C949   1.492       .  S
C698        H699   1.085   1_565  S
C701        C702   1.523       .  S
C701        C707   1.521       .  S
C701        C705   1.545       .  S
C701        C909   1.530       .  S
C702        H709   1.088       .  S
C702        C703   1.343       .  D
C703        C704   1.577       .  S
C703       C1247   1.513       .  S
C704        C708   1.555       .  S
C704        C706   1.549       .  S
C704        H710   1.102       .  S
C705        H711   1.080       .  S
C705        C706   1.381       .  D
C706       C1267   1.519       .  S
C707        H712   1.074       .  S
C707        C708   1.354       .  D
C708        C926   1.497       .  S
C713       C1042   1.501       .  S
C713        C719   1.520   1_556  S
C713        C717   1.573   1_556  S
C713       C1227   1.546       .  S
C714       C1041   1.501       .  S
C714        H721   1.088       .  S
C715        C716   1.568   1_556  S
C715       C1194   1.485       .  S
C716        C720   1.566       .  S
C716        H722   1.107       .  S
C717        H723   1.080       .  S
C717        C718   1.401       .  D
C718        C879   1.532       .  S
C719        H724   1.088       .  S
C720        C889   1.510       .  S
C725        C726   1.414       .  A
C725        C730   1.392       .  A
C725        C906   1.466       .  S
C726        C727   1.408       .  A
C726        C876   1.525       .  S
C727        C728   1.423       .  A
C727        H732   1.084       .  S
C728        C729   1.453       .  A
C728        C794   1.503       .  S
C729        C730   1.402       .  A
C729        C805   1.509       .  S
C730        H731   1.087       .  S
C733        C734   1.409       .  A
C733        C738   1.413       .  A
C733        C916   1.498       .  S
C734        C735   1.392       .  A
C734        C869   1.483       .  S
C735        C736   1.402       .  A
C735        H740   1.087       .  S
C736        C737   1.447       .  A
C736        C792   1.491       .  S
C737        C738   1.419       .  A
C737        C807   1.526       .  S
C738        H739   1.084       .  S
C741        C742   1.458       .  A
C741        C746   1.403       .  A
C741        C793   1.502       .  S
C742        C743   1.419       .  A
C742        C806   1.502       .  S
C743        C744   1.397       .  A
C743        H748   1.085       .  S
C744        C745   1.407       .  A
C744        C849   1.495       .  S
C745        C746   1.385       .  A
C745        C856   1.475       .  S
C746        H747   1.087       .  S
C749       C1083   1.502   1_554  S
C749        C753   1.539       .  S
C749       C1187   1.545   1_554  S
C750        H757   1.074       .  S
C750        C751   1.354       .  D
C751        C752   1.552       .  S
C751        C839   1.533       .  S
C752        C756   1.562       .  S
C752        H758   1.085       .  S
C753        H759   1.085       .  S
C753        C754   1.375       .  D
C754        C946   1.486       .  S
C755       C1077   1.502       .  S
C756       C1307   1.512   1_554  S
C761        C762   1.412       .  A
C761        C766   1.403       .  A
C761        C836   1.502       .  S
C762        C763   1.401       .  A
C762        C826   1.494       .  S
C763        C764   1.417       .  A
C763        H768   1.085       .  S
C764        C765   1.457       .  A
C764        C808   1.512       .  S
C765        C766   1.419       .  A
C765        C791   1.514       .  S
C766        H767   1.085       .  S
C769       C1098   1.528       .  S
C769        C775   1.510       .  S
C769        C773   1.535       .  S
C769       C1294   1.554       .  S
C770       C1097   1.528       .  S
C770        H777   1.071       .  S
C770       C1099   1.357       .  D
C771        C772   1.553       .  S
C771       C1098   1.357       .  D
C771       C1174   1.521       .  S
C772        C776   1.552       .  S
C772        C774   1.558       .  S
C772        H778   1.103       .  S
C773        H779   1.084       .  S
C773        C774   1.376       .  D
C774        C829   1.483       .  S
C775        H780   1.071       .  S
C775        C776   1.361       .  D
C776        C956   1.498       .  S
O781        C791   1.273       .  A
O782        C792   1.264       .  A
O782        V789   1.919       .  S
O783        C793   1.270       .  A
O783        V789   1.940       .  S
O784        C794   1.276       .  A
O785        C794   1.264       .  A
O785        V790   1.921       .  S
O786        C793   1.270       .  A
O787        C792   1.273       .  A
O788        C791   1.270       .  A
O788        V790   1.941       .  S
O795        C805   1.274       .  A
O795        V803   1.920       .  S
O796        C806   1.265       .  A
O796        V803   1.928       .  S
O797        C807   1.271       .  A
O797        V803   1.940       .  S
O798        C808   1.275       .  A
O798        V803   1.925       .  S
O799        C808   1.268       .  A
O799        V804   1.937       .  S
O800        C807   1.275       .  A
O800        V804   1.931       .  S
O801        C806   1.274       .  A
O801        V804   1.916       .  S
O802        C805   1.268       .  A
O802        V804   1.936       .  S
V803        V804   2.081       .  T
C809        C810   1.445       .  A
C809        C814   1.408       .  A
C810        C811   1.411       .  A
C811        C812   1.398       .  A
C811        H816   1.084       .  S
C812        C813   1.408       .  A
C812        C936   1.487       .  S
C813        C814   1.405       .  A
C813        C896   1.490       .  S
C814        H815   1.085       .  S
C817        C818   1.448       .  A
C817        C822   1.423       .  A
C818        C819   1.404       .  A
C819        C820   1.390       .  A
C819        H824   1.087       .  S
C820        C821   1.411       .  A
C820        C929   1.486       .  S
C821        C822   1.412       .  A
C821        C886   1.499       .  S
C822        H823   1.084       .  S
C825        C826   1.412       .  A
C825        C830   1.412       .  A
C825       Br832   1.927       .  S
C826        C827   1.408       .  A
C827        C828   1.404       .  A
C827       Br834   1.926       .  S
C828        C829   1.404       .  A
C828       Br833   1.927       .  S
C829        C830   1.408       .  A
C830       Br831   1.927       .  S
C835        C836   1.402       .  A
C835        C840   1.407       .  A
C835       Br842   1.934       .  S
C836        C837   1.404       .  A
C837        C838   1.417       .  A
C837       Br844   1.927       .  S
C838        C839   1.430       .  A
C839        C840   1.434       .  A
C840       Br841   1.948       .  S
C845        C846   1.427       .  A
C845        C850   1.404       .  A
C845       Br852   1.942       .  S
C846        C847   1.424       .  A
C846       C1099   1.521       .  S
C847        C848   1.415       .  A
C847      Br1182   1.928       .  S
C848        C849   1.406       .  A
C848       Br853   1.932       .  S
C849        C850   1.402       .  A
C850       Br851   1.928       .  S
Br854      C1175   1.928       .  S
C855        C856   1.396       .  A
C855        C860   1.403       .  A
C855       Br862   1.944       .  S
C856        C857   1.399       .  A
C857       C1186   1.400       .  A
C857       Br864   1.928       .  S
C858       C1185   1.400   1_554  A
C858       C1187   1.424   1_554  A
C858       Br863   1.942       .  S
C859       C1186   1.424       .  A
C859        C860   1.441       .  A
C859       C1077   1.545       .  S
C860       Br861   1.936       .  S
C865        C866   1.404       .  A
C865        C870   1.404       .  A
C865      Br1200   1.910       .  S
C866        C867   1.411       .  A
C866       C1043   1.485       .  S
C867        C868   1.404       .  A
C868        C869   1.411       .  A
C868       Br873   1.928       .  S
C869        C870   1.407       .  A
C870       Br871   1.922       .  S
Br872      C1193   1.910       .  S
C875        C876   1.409       .  A
C875        C880   1.415       .  A
C875       Br882   1.939       .  S
C876        C877   1.415       .  A
C877        C878   1.424       .  A
C877       Br884   1.923       .  S
C878        C879   1.415       .  A
C878       Br883   1.925       .  S
C879        C880   1.426       .  A
C885        C886   1.409       .  A
C885        C890   1.409       .  A
C885       Br892   1.925       .  S
C886        C887   1.409       .  A
C887        C888   1.415       .  A
C887       Br894   1.926       .  S
C888        C889   1.405       .  A
C888       Br893   1.908       .  S
C889        C890   1.412       .  A
C890       Br891   1.918       .  S
C895        C896   1.415       .  A
C895        C900   1.417       .  A
C895       Br902   1.923       .  S
C896        C897   1.404       .  A
C897        C898   1.393       .  A
C897       Br904   1.937       .  S
C898        C899   1.427       .  A
C899        C900   1.411       .  A
C899       C1041   1.546       .  S
C900       Br901   1.915       .  S
C905        C906   1.396       .  A
C905        C910   1.390       .  A
C905       Br912   1.932       .  S
C906        C907   1.401       .  A
C907        C908   1.403       .  A
C907       Br914   1.924       .  S
C908        C909   1.420       .  A
C908       Br913   1.937       .  S
C909        C910   1.421       .  A
C910       Br911   1.926       .  S
C915        C916   1.409       .  A
C915       C1248   1.419       .  A
C915       Br922   1.924       .  S
C916        C917   1.396       .  A
C917        C918   1.407       .  A
C917       Br924   1.934       .  S
C918        C919   1.426       .  A
C918       Br923   1.902       .  S
C919       C1248   1.419       .  A
C919       C1031   1.513       .  S
C920       C1243   1.419       .  A
C920       C1247   1.419       .  A
C920       Br921   1.930       .  S
C925        C926   1.420       .  A
C925        C930   1.403       .  A
C925       Br932   1.905       .  S
C926        C927   1.419       .  A
C927        C928   1.406       .  A
C927       Br934   1.937       .  S
C928        C929   1.399       .  A
C928       Br933   1.906       .  S
C929        C930   1.399       .  A
C930       Br931   1.936       .  S
C935        C936   1.398       .  A
C935        C940   1.404       .  A
C935       Br942   1.944       .  S
C936        C937   1.406       .  A
C937        C938   1.411       .  A
C937       Br944   1.929       .  S
C938        C939   1.428       .  A
C938      Br1271   1.935       .  S
C939        C940   1.428       .  A
C939       C1034   1.519       .  S
C940       Br941   1.906       .  S
Br943      C1266   1.935       .  S
C945        C946   1.408       .  A
C945        C950   1.408       .  A
C945       Br952   1.928       .  S
C946        C947   1.411       .  A
C947        C948   1.405       .  A
C947       Br954   1.930       .  S
C948        C949   1.407       .  A
C948       Br953   1.932       .  S
C949        C950   1.407       .  A
C950       Br951   1.917       .  S
C955        C956   1.409       .  A
C955        C960   1.415       .  A
C955       Br962   1.921       .  S
C956        C957   1.415       .  A
C957        C958   1.399       .  A
C957       Br964   1.941       .  S
C958        C959   1.405       .  A
C958       Br963   1.927       .  S
C959        C960   1.413       .  A
C960       Br961   1.927       .  S
C965        C966   1.422       .  A
C965        C970   1.405       .  A
C965       Br972   1.945       .  S
C966        C967   1.430       .  A
C966       C1097   1.554       .  S
C967        C968   1.412       .  A
C967      Br1302   1.946       .  S
C968        C969   1.409       .  A
C968       Br973   1.933       .  S
C969        C970   1.404       .  A
C970       Br971   1.924       .  S
Br974      C1295   1.946       .  S
C975        C976   1.393       .  A
C975        C980   1.399       .  A
C975       Br982   1.936       .  S
C976        C977   1.401       .  A
C977       C1306   1.405       .  A
C977       Br984   1.930       .  S
C978       C1305   1.405       .  A
C978       C1307   1.420       .  A
C978       Br983   1.925   1_556  S
C979       C1306   1.420       .  A
C979        C980   1.437       .  A
C979       C1084   1.512       .  S
C980       Br981   1.944       .  S
C985        C986   1.458       .  A
C985        C990   1.407       .  A
C985       C1004   1.507       .  S
C986        C987   1.417       .  A
C986       C1020   1.498       .  S
C987        C988   1.393       .  A
C987        H992   1.085       .  S
C988        C989   1.407       .  A
C988       C1297   1.498       .  S
C989        C990   1.390       .  A
C989       C1304   1.472       .  S
C990        H991   1.087       .  S
O993       C1003   1.276   1_545  A
O994       C1004   1.270       .  A
O994       V1001   1.942       .  S
O995       C1005   1.274   1_545  A
O996       C1006   1.267       .  A
O996       V1001   1.931   1_655  S
O997       C1006   1.272       .  A
O998       C1005   1.268       .  A
O998       V1002   1.936   1_565  S
O999       C1004   1.272       .  A
O1000      C1003   1.269       .  A
O1000      V1002   1.931   1_665  S
C1003      C1145   1.519       .  S
C1005      C1021   1.511       .  S
C1006      C1137   1.504       .  S
O1007      C1017   1.274       .  A
O1007      V1015   1.920       .  S
O1008      C1018   1.269       .  A
O1008      V1015   1.934   1_655  S
O1009      C1019   1.272       .  A
O1009      V1015   1.914   1_655  S
O1010      C1020   1.265       .  A
O1010      V1015   1.927       .  S
O1011      C1020   1.273       .  A
O1011      V1016   1.907       .  S
O1012      C1019   1.266       .  A
O1012      V1016   1.924   1_655  S
O1013      C1018   1.272       .  A
O1013      V1016   1.910   1_655  S
O1014      C1017   1.266       .  A
O1014      V1016   1.927       .  S
V1015      V1016   2.082       .  T
C1017      C1022   1.501       .  S
C1018      C1138   1.509       .  S
C1019      C1146   1.494       .  S
C1021      C1022   1.454       .  A
C1021      C1026   1.415       .  A
C1022      C1023   1.414       .  A
C1023      C1024   1.398       .  A
C1023      H1028   1.086       .  S
C1024      C1025   1.412       .  A
C1024      C1287   1.494       .  S
C1025      C1026   1.401       .  A
C1025      C1277   1.492       .  S
C1026      H1027   1.085   1_565  S
C1029      C1030   1.523       .  S
C1029      C1035   1.521       .  S
C1029      C1033   1.545       .  S
C1029      C1237   1.530       .  S
C1030      H1037   1.088       .  S
C1030      C1031   1.343       .  D
C1031      C1032   1.577       .  S
C1032      C1036   1.555       .  S
C1032      C1034   1.549       .  S
C1032      H1038   1.102       .  S
C1033      H1039   1.080       .  S
C1033      C1034   1.381       .  D
C1035      H1040   1.074       .  S
C1035      C1036   1.354       .  D
C1036      C1254   1.497       .  S
C1041      C1047   1.520       .  S
C1041      C1045   1.573       .  S
C1042      H1049   1.088       .  S
C1043      C1044   1.568       .  S
C1044      C1048   1.566       .  S
C1044      H1050   1.107       .  S
C1045      H1051   1.080       .  S
C1045      C1046   1.401       .  D
C1046      C1207   1.532       .  S
C1047      H1052   1.088       .  S
C1048      C1217   1.510       .  S
C1053      C1054   1.414       .  A
C1053      C1058   1.392       .  A
C1053      C1234   1.466       .  S
C1054      C1055   1.408       .  A
C1054      C1204   1.525       .  S
C1055      C1056   1.423       .  A
C1055      H1060   1.084       .  S
C1056      C1057   1.453       .  A
C1056      C1122   1.503       .  S
C1057      C1058   1.402       .  A
C1057      C1133   1.509       .  S
C1058      H1059   1.087       .  S
C1061      C1062   1.409       .  A
C1061      C1066   1.413       .  A
C1061      C1244   1.498       .  S
C1062      C1063   1.392       .  A
C1062      C1197   1.483       .  S
C1063      C1064   1.402       .  A
C1063      H1068   1.087       .  S
C1064      C1065   1.447       .  A
C1064      C1120   1.491       .  S
C1065      C1066   1.419       .  A
C1065      C1135   1.526       .  S
C1066      H1067   1.084       .  S
C1069      C1070   1.458       .  A
C1069      C1074   1.403       .  A
C1069      C1121   1.502       .  S
C1070      C1071   1.419       .  A
C1070      C1134   1.502       .  S
C1071      C1072   1.397       .  A
C1071      H1076   1.085       .  S
C1072      C1073   1.407       .  A
C1072      C1177   1.495       .  S
C1073      C1074   1.385       .  A
C1073      C1184   1.475       .  S
C1074      H1075   1.087       .  S
C1077      C1081   1.539       .  S
C1078      H1085   1.074       .  S
C1078      C1079   1.354       .  D
C1079      C1080   1.552       .  S
C1079      C1167   1.533       .  S
C1080      C1084   1.562       .  S
C1080      H1086   1.085       .  S
C1081      H1087   1.085       .  S
C1081      C1082   1.375       .  D
C1082      C1274   1.486       .  S
C1089      C1090   1.412       .  A
C1089      C1094   1.403       .  A
C1089      C1164   1.502       .  S
C1090      C1091   1.401       .  A
C1090      C1154   1.494       .  S
C1091      C1092   1.417       .  A
C1091      H1096   1.085       .  S
C1092      C1093   1.457       .  A
C1092      C1136   1.512       .  S
C1093      C1094   1.419       .  A
C1093      C1119   1.514       .  S
C1094      H1095   1.085       .  S
C1097      C1103   1.510       .  S
C1097      C1101   1.535       .  S
C1098      H1105   1.071   1_554  S
C1099      C1100   1.553       .  S
C1100      C1104   1.552       .  S
C1100      C1102   1.558       .  S
C1100      H1106   1.103       .  S
C1101      H1107   1.084       .  S
C1101      C1102   1.376       .  D
C1102      C1157   1.483       .  S
C1103      H1108   1.071       .  S
C1103      C1104   1.361       .  D
C1104      C1284   1.498       .  S
O1109      C1119   1.273       .  A
O1110      C1120   1.264       .  A
O1110      V1117   1.919       .  S
O1111      C1121   1.270       .  A
O1111      V1117   1.940       .  S
O1112      C1122   1.276       .  A
O1113      C1122   1.264       .  A
O1113      V1118   1.921       .  S
O1114      C1121   1.270       .  A
O1115      C1120   1.273       .  A
O1116      C1119   1.270       .  A
O1116      V1118   1.941       .  S
O1123      C1133   1.274       .  A
O1123      V1131   1.920       .  S
O1124      C1134   1.265       .  A
O1124      V1131   1.928       .  S
O1125      C1135   1.271       .  A
O1125      V1131   1.940       .  S
O1126      C1136   1.275       .  A
O1126      V1131   1.925       .  S
O1127      C1136   1.268       .  A
O1127      V1132   1.937       .  S
O1128      C1135   1.275       .  A
O1128      V1132   1.931       .  S
O1129      C1134   1.274       .  A
O1129      V1132   1.916       .  S
O1130      C1133   1.268       .  A
O1130      V1132   1.936       .  S
V1131      V1132   2.081       .  T
C1137      C1138   1.445       .  A
C1137      C1142   1.408       .  A
C1138      C1139   1.411       .  A
C1139      C1140   1.398       .  A
C1139      H1144   1.084       .  S
C1140      C1141   1.408       .  A
C1140      C1264   1.487       .  S
C1141      C1142   1.405       .  A
C1141      C1224   1.490       .  S
C1142      H1143   1.085       .  S
C1145      C1146   1.448       .  A
C1145      C1150   1.423       .  A
C1146      C1147   1.404       .  A
C1147      C1148   1.390       .  A
C1147      H1152   1.087       .  S
C1148      C1149   1.411       .  A
C1148      C1257   1.486       .  S
C1149      C1150   1.412       .  A
C1149      C1214   1.499       .  S
C1150      H1151   1.084       .  S
C1153      C1154   1.412       .  A
C1153      C1158   1.412       .  A
C1153     Br1160   1.927       .  S
C1154      C1155   1.408       .  A
C1155      C1156   1.404       .  A
C1155     Br1162   1.926       .  S
C1156      C1157   1.404       .  A
C1156     Br1161   1.927       .  S
C1157      C1158   1.408       .  A
C1158     Br1159   1.927       .  S
C1163      C1164   1.402       .  A
C1163      C1168   1.407       .  A
C1163     Br1170   1.934       .  S
C1164      C1165   1.404       .  A
C1165      C1166   1.417       .  A
C1165     Br1172   1.927       .  S
C1166      C1167   1.430       .  A
C1167      C1168   1.434       .  A
C1168     Br1169   1.948       .  S
C1173      C1174   1.427   1_556  A
C1173      C1178   1.404       .  A
C1173     Br1180   1.942       .  S
C1174      C1175   1.424       .  A
C1175      C1176   1.415   1_554  A
C1176      C1177   1.406       .  A
C1176     Br1181   1.932   1_556  S
C1177      C1178   1.402       .  A
C1178     Br1179   1.928       .  S
C1183      C1184   1.396       .  A
C1183      C1188   1.403       .  A
C1183     Br1190   1.944       .  S
C1184      C1185   1.399       .  A
C1185     Br1192   1.928   1_556  S
C1186     Br1191   1.942       .  S
C1187      C1188   1.441       .  A
C1188     Br1189   1.936       .  S
C1193      C1194   1.404       .  A
C1193      C1198   1.404       .  A
C1194      C1195   1.411       .  A
C1195      C1196   1.404       .  A
C1196      C1197   1.411       .  A
C1196     Br1201   1.928       .  S
C1197      C1198   1.407       .  A
C1198     Br1199   1.922       .  S
C1203      C1204   1.409       .  A
C1203      C1208   1.415       .  A
C1203     Br1210   1.939       .  S
C1204      C1205   1.415       .  A
C1205      C1206   1.424       .  A
C1205     Br1212   1.923       .  S
C1206      C1207   1.415       .  A
C1206     Br1211   1.925       .  S
C1207      C1208   1.426       .  A
C1213      C1214   1.409       .  A
C1213      C1218   1.409       .  A
C1213     Br1220   1.925       .  S
C1214      C1215   1.409       .  A
C1215      C1216   1.415       .  A
C1215     Br1222   1.926       .  S
C1216      C1217   1.405       .  A
C1216     Br1221   1.908       .  S
C1217      C1218   1.412       .  A
C1218     Br1219   1.918       .  S
C1223      C1224   1.415       .  A
C1223      C1228   1.417       .  A
C1223     Br1230   1.923       .  S
C1224      C1225   1.404       .  A
C1225      C1226   1.393       .  A
C1225     Br1232   1.937       .  S
C1226      C1227   1.427       .  A
C1227      C1228   1.411       .  A
C1228     Br1229   1.915       .  S
C1233      C1234   1.396       .  A
C1233      C1238   1.390       .  A
C1233     Br1240   1.932       .  S
C1234      C1235   1.401       .  A
C1235      C1236   1.403       .  A
C1235     Br1242   1.924       .  S
C1236      C1237   1.420       .  A
C1236     Br1241   1.937       .  S
C1237      C1238   1.421       .  A
C1238     Br1239   1.926       .  S
C1243      C1244   1.409   1_554  A
C1243     Br1250   1.924       .  S
C1244      C1245   1.396       .  A
C1245      C1246   1.407       .  A
C1245     Br1252   1.934       .  S
C1246      C1247   1.426   1_556  A
C1246     Br1251   1.902       .  S
C1248     Br1249   1.930       .  S
C1253      C1254   1.420       .  A
C1253      C1258   1.403       .  A
C1253     Br1260   1.905       .  S
C1254      C1255   1.419       .  A
C1255      C1256   1.406       .  A
C1255     Br1262   1.937       .  S
C1256      C1257   1.399       .  A
C1256     Br1261   1.906       .  S
C1257      C1258   1.399       .  A
C1258     Br1259   1.936       .  S
C1263      C1264   1.398       .  A
C1263      C1268   1.404       .  A
C1263     Br1270   1.944       .  S
C1264      C1265   1.406       .  A
C1265      C1266   1.411   1_556  A
C1265     Br1272   1.929   1_556  S
C1266      C1267   1.428       .  A
C1267      C1268   1.428   1_554  A
C1268     Br1269   1.906       .  S
C1273      C1274   1.408       .  A
C1273      C1278   1.408       .  A
C1273     Br1280   1.928       .  S
C1274      C1275   1.411       .  A
C1275      C1276   1.405       .  A
C1275     Br1282   1.930       .  S
C1276      C1277   1.407       .  A
C1276     Br1281   1.932       .  S
C1277      C1278   1.407       .  A
C1278     Br1279   1.917       .  S
C1283      C1284   1.409       .  A
C1283      C1288   1.415       .  A
C1283     Br1290   1.921       .  S
C1284      C1285   1.415       .  A
C1285      C1286   1.399       .  A
C1285     Br1292   1.941       .  S
C1286      C1287   1.405       .  A
C1286     Br1291   1.927       .  S
C1287      C1288   1.413       .  A
C1288     Br1289   1.927       .  S
C1293      C1294   1.422   1_556  A
C1293      C1298   1.405       .  A
C1293     Br1300   1.945       .  S
C1294      C1295   1.430       .  A
C1295      C1296   1.412   1_554  A
C1296      C1297   1.409       .  A
C1296     Br1301   1.933       .  S
C1297      C1298   1.404       .  A
C1298     Br1299   1.924       .  S
C1303      C1304   1.393       .  A
C1303      C1308   1.399       .  A
C1303     Br1310   1.936       .  S
C1304      C1305   1.401       .  A
C1305     Br1312   1.930       .  S
C1306     Br1311   1.925       .  S
C1307      C1308   1.437       .  A
C1308     Br1309   1.944       .  S
