geometry optimzed in LAMMPS
_audit_creation_date              2020-12-01 
_audit_creation_method            'lammps2cif' 
_symmetry_space_group_name_H-M    'P1' 
_symmetry_Int_Tables_number       1 
_symmetry_cell_setting            triclinic 
loop_ 
_symmetry_equiv_pos_as_xyz 
  x,y,z 
_cell_length_a                    23.83831597 
_cell_length_b                    23.867331452877078 
_cell_length_c                    78.45114026317873 
_cell_angle_alpha                 89.95754812776454 
_cell_angle_beta                  90.04250639819755 
_cell_angle_gamma                 120.2609019689589 
loop_ 
_atom_site_label 
_atom_site_type_symbol 
_atom_site_fract_x 
_atom_site_fract_y 
_atom_site_fract_z 
_atom_site_charge 
Zn1        Zn  0.25131990  0.35078676  0.37966519     1.49700
Zn2        Zn  0.16780745  0.33503001  0.34727829     1.49400
Zn3        Zn  0.09999510  0.25132370  0.37961827     1.49100
Zn4        Zn  0.15222888  0.40238558  0.37964319     1.49500
O5          O  0.16786180  0.33490271  0.37169096    -1.80600
O6          O  0.31523922  0.37812606  0.36009313    -0.71200
O7          O  0.11227649  0.25050380  0.33761156    -0.71100
O8          O  0.13745803  0.22132174  0.39784296    -0.70600
O9          O  0.25235996  0.36412981  0.33765986    -0.71200
O10         O  0.24417993  0.27644954  0.39338412    -0.70800
O11         O  0.06392619  0.18734689  0.36004966    -0.71400
O12         O  0.08422376  0.36435736  0.39777797    -0.70800
O13         O  0.13894547  0.39041688  0.33762810    -0.71600
O14         O  0.03215014  0.25784090  0.39318202    -0.71000
O15         O  0.12475169  0.43877546  0.36008220    -0.71400
O16         O  0.22681599  0.47002078  0.39333335    -0.71300
O17         O  0.28185579  0.41879222  0.39778987    -0.71100
C18         C  0.30702704  0.38067476  0.34407982     0.80700
C19         C  0.07459679  0.19567050  0.34403523     0.81100
C20         C  0.19481407  0.23598211  0.40189087     0.80100
C21         C  0.04119174  0.30694379  0.40174979     0.80500
C22         C  0.12225735  0.42819658  0.34406302     0.81600
C23         C  0.26731407  0.46139389  0.40182974     0.80700
Zn24       Zn  0.41504618  0.43994210  0.29679488     1.49700
Zn25       Zn  0.06271019  0.47659211  0.29678796     1.49400
Zn26       Zn  0.02668762  0.08769873  0.29677357     1.49100
Zn27       Zn  0.00167256  0.50145696  0.32933868     1.49500
O28         O  0.00153780  0.50143787  0.30470871    -1.80600
O29         O  0.41396020  0.37100541  0.28204120    -0.71200
O30         O  0.13185785  0.04490635  0.28205265    -0.71100
O31         O  0.45859319  0.08818993  0.28195274    -0.70600
O32         O  0.51949468  0.40577006  0.27956850    -0.71200
O33         O  0.38715529  0.98270668  0.27959729    -0.70800
O34         O  0.09776546  0.11588136  0.27962435    -0.71400
O35         O  0.02602312  0.08518043  0.33914684    -0.70800
O36         O  0.09874705  0.45054837  0.31654908    -0.71600
O37         O  0.05246549  0.14984304  0.31651883    -0.71000
O38         O  0.06112047  0.47733530  0.33918213    -0.71400
O39         O  0.41774976  0.44188942  0.33917436    -0.71300
O40         O  0.35284172  0.40389953  0.31655913    -0.71100
C41         C  0.46114969  0.37044111  0.27469757     0.80700
C42         C  0.13279504  0.09286866  0.27473684     0.81100
C43         C  0.41040314  0.04088874  0.27467194     0.80100
C44         C  0.04805006  0.14065190  0.33261223     0.80500
C45         C  0.09414698  0.45501881  0.33264418     0.81600
C46         C  0.36209501  0.40870079  0.33265045     0.80700
C47         C  0.16725707  0.33412010  0.80337642     0.49000
H48         H  0.16722196  0.33410833  0.78914588     0.00000
C49         C  0.16735874  0.33413306  0.83640201     0.49000
H50         H  0.16741436  0.33412798  0.85055360     0.00000
C51         C  0.23489369  0.37193787  0.81072198    -0.13700
C52         C  0.12964949  0.36379577  0.81071918    -0.13500
C53         C  0.13733309  0.26661827  0.81073297    -0.13900
C54         C  0.23903210  0.37317965  0.82812719    -0.13800
C55         C  0.12845865  0.36666503  0.82812425    -0.13400
C56         C  0.13458284  0.26253464  0.82813775    -0.13700
C57         C  0.50118846  0.50060729  0.84122168     0.49000
H58         H  0.50109959  0.50065689  0.82707059     0.00000
C59         C  0.50136565  0.00051326  0.87424650     0.49000
H60         H  0.00143721  0.00047862  0.88847796     0.00000
C61         C  0.04017123  0.07220854  0.84949915    -0.13700
C62         C  0.42954917  0.46771101  0.84951146    -0.13500
C63         C  0.03391579  0.46186120  0.84947424    -0.13900
C64         C  0.03900667  0.06805762  0.86690003    -0.13800
C65         C  0.43374059  0.47045065  0.86691490    -0.13400
C66         C  0.03118783  0.46311205  0.86687772    -0.13700
C67         C  0.16801654  0.33399979  0.53862082     0.49000
H68         H  0.16804353  0.33392023  0.55285106     0.00000
C69         C  0.16794113  0.33418537  0.50559227     0.49000
H70         H  0.16789477  0.33426922  0.49144030     0.00000
C71         C  0.20598695  0.40154086  0.53128859    -0.13700
C72         C  0.19752999  0.29632030  0.53125268    -0.13500
C73         C  0.10044548  0.30428071  0.53127550    -0.13900
C74         C  0.20747516  0.40574208  0.51389067    -0.13800
C75         C  0.20004188  0.29484725  0.51385547    -0.13400
C76         C  0.09630789  0.30186396  0.51387661    -0.13700
C77         C  0.33394558  0.16772483  0.46797058     0.49000
H78         H  0.33387643  0.16773631  0.45374569     0.00000
C79         C  0.33412060  0.16769979  0.50102828     0.49000
H80         H  0.33420941  0.16768637  0.51517885     0.00000
C81         C  0.30772580  0.10059101  0.47537384    -0.13700
C82         C  0.40124312  0.20884405  0.47535903    -0.13500
C83         C  0.29304126  0.19371494  0.47538509    -0.13900
C84         C  0.30390334  0.09639550  0.49275974    -0.13800
C85         C  0.40550257  0.20905219  0.49274309    -0.13400
C86         C  0.29290399  0.19766364  0.49276788    -0.13700
Zn87       Zn  0.33460888  0.16745146  0.66116514     1.49700
Zn88       Zn  0.37045011  0.25616741  0.62880777     1.49400
Zn89       Zn  0.38746930  0.13190840  0.62886632     1.49100
Zn90       Zn  0.24563150  0.11421672  0.62882677     1.49500
O91         O  0.33453850  0.16744019  0.63655055    -1.80600
O92         O  0.36853950  0.25135409  0.67119099    -0.71200
O93         O  0.44269649  0.27855521  0.61225061    -0.71100
O94         O  0.42167264  0.10451817  0.64904102    -0.70600
O95         O  0.39757675  0.31795214  0.64895822    -0.71200
O96         O  0.38452473  0.13371585  0.67126833    -0.70800
O97         O  0.45708204  0.19335166  0.61292368    -0.71400
O98         O  0.23726110  0.04463165  0.61294172    -0.70800
O99         O  0.30919563  0.26396980  0.61279104    -0.71600
O100        O  0.33739681  0.05987876  0.61226118    -0.71000
O101        O  0.22367253  0.16388175  0.61215269    -0.71400
O102        O  0.18375873  0.08010566  0.64899274    -0.71300
O103        O  0.25055096  0.11739566  0.67121613    -0.71100
C104        C  0.39295299  0.30744896  0.66502562     0.80700
C105        C  0.46778491  0.24657789  0.60639076     0.81100
C106        C  0.41584116  0.10909142  0.66510734     0.80100
C107        C  0.28002673  0.03437383  0.60640898     0.80500
C108        C  0.25584097  0.22113936  0.60626784     0.81600
C109        C  0.19430925  0.08603648  0.66505874     0.80700
Zn110      Zn  0.46704917  0.05524393  0.71320942     1.49700
Zn111      Zn  0.08930697  0.03477959  0.71320513     1.49400
Zn112      Zn  0.44592926  0.41227307  0.71317586     1.49100
Zn113      Zn  0.00065511  0.00096649  0.68086817     1.49500
O114        O  0.00074162  0.00082008  0.70547163    -1.80600
O115        O  0.03015126  0.12560577  0.72876811    -0.71200
O116        O  0.09665579  0.47187006  0.72872793    -0.71100
O117        O  0.37520760  0.40436845  0.72863283    -0.70600
O118        O  0.11177006  0.10565572  0.73018641    -0.71200
O119        O  0.39601530  0.50625391  0.73015461    -0.70800
O120        O  0.99450679  0.39026224  0.73019706    -0.71400
O121        O  0.45028443  0.41713662  0.67077949    -0.70800
O122        O  0.15125737  0.06343951  0.69304041    -0.71600
O123        O  0.41302388  0.35041807  0.69300325    -0.71000
O124        O  0.08456205  0.03463587  0.67081377    -0.71400
O125        O  0.46726711  0.05120050  0.67083110    -0.71300
O126        O  0.43847685  0.08861360  0.69307901    -0.71100
C127        C  0.08184471  0.13342876  0.73568926     0.80700
C128        C  0.05253348  0.42022134  0.73566945     0.81100
C129        C  0.36776419  0.44826089  0.73559751     0.80100
C130        C  0.41915926  0.36094597  0.67693719     0.80500
C131        C  0.14074714  0.05920470  0.67697341     0.81600
C132        C  0.44271043  0.08253797  0.67700901     0.80700
C133        C  0.33430944  0.16682247  0.20782226     0.49000
H134        H  0.33433680  0.16675846  0.22205214     0.00000
C135        C  0.33421872  0.16696741  0.17477867     0.49000
H136        H  0.33417402  0.16704860  0.16062766     0.00000
C137        C  0.26700808  0.13925195  0.20044669    -0.13700
C138        C  0.37415463  0.23409859  0.20046212    -0.13500
C139        C  0.36169342  0.12727290  0.20042563    -0.13900
C140        C  0.26278018  0.13591566  0.18306982    -0.13800
C141        C  0.37482809  0.23834312  0.18308518    -0.13400
C142        C  0.36506174  0.12656736  0.18304991    -0.13700
C143        C  0.00016149  0.00039610  0.13740470     0.49000
H144        H  0.00008452  0.00037227  0.12317610     0.00000
C145        C  0.50036455  0.00045177  0.17044989     0.49000
H146        H  0.50046034  0.00046147  0.18460186     0.00000
C147        C  0.47171911  0.43308739  0.14478784    -0.13700
C148        C  0.06764441  0.03950120  0.14476183    -0.13500
C149        C  0.46129242  0.02861520  0.14478323    -0.13900
C150        C  0.46878820  0.42901161  0.16217329    -0.13800
C151        C  0.07185603  0.04055110  0.16214577    -0.13400
C152        C  0.46037640  0.03174900  0.16216653    -0.13700
Zn153      Zn  0.07951162  0.27746034  0.96414451     1.49700
Zn154      Zn  0.22381071  0.30217552  0.96417410     1.49400
Zn155      Zn  0.19972565  0.42177283  0.96412758     1.49100
Zn156      Zn  0.16776589  0.33373272  0.99656728     1.49500
O157        O  0.16770133  0.33378952  0.97194048    -1.80600
O158        O  0.07339485  0.20754671  0.94880973    -0.71200
O159        O  0.29386752  0.36627791  0.94880643    -0.71100
O160        O  0.13586571  0.42739148  0.94867685    -0.70600
O161        O  0.17615419  0.23072772  0.94724497    -0.71200
O162        O  0.05558417  0.32472459  0.94717177    -0.70800
O163        O  0.27148831  0.44613044  0.94726001    -0.71400
O164        O  0.19539832  0.41732512  0.00651727    -0.70800
O165        O  0.25864686  0.27534710  0.98420570    -0.71600
O166        O  0.22618938  0.48349974  0.98414799    -0.71000
O167        O  0.22375303  0.30630431  0.00657793    -0.71400
O168        O  0.08396080  0.27760944  0.00654656    -0.71300
O169        O  0.01764585  0.24262355  0.98418179    -0.71100
C170        C  0.11798694  0.20116529  0.94186960     0.80700
C171        C  0.30072088  0.41748490  0.94188049     0.81100
C172        C  0.08450214  0.38277676  0.94176124     0.80100
C173        C  0.22002465  0.47333265  0.00021541     0.80500
C174        C  0.25473813  0.28144756  0.00027495     0.81600
C175        C  0.02781226  0.24659028  0.00025061     0.80700
Zn176      Zn  0.30752337  0.22729681  0.04797018     1.49700
Zn177      Zn  0.33382415  0.16724946  0.01561593     1.49400
Zn178      Zn  0.42083381  0.19369334  0.04798227     1.49100
Zn179      Zn  0.27325202  0.08009265  0.04794100     1.49500
O180        O  0.33387274  0.16709291  0.04014941    -1.80600
O181        O  0.27989869  0.26225759  0.02807795    -0.71200
O182        O  0.41792465  0.19771261  0.00572642    -0.71100
O183        O  0.44683310  0.26358921  0.06544950    -0.70600
O184        O  0.30364101  0.22086798  0.00572163    -0.71200
O185        O  0.37523960  0.29691815  0.06278552    -0.70800
O186        O  0.48349407  0.22143442  0.02806521    -0.71400
O187        O  0.31723406  0.05452364  0.06545154    -0.70800
O188        O  0.28007005  0.08320780  0.00568886    -0.71600
O189        O  0.42269710  0.12609325  0.06275230    -0.71000
O190        O  0.23877074  0.01751000  0.02802269    -0.71400
O191        O  0.20324394  0.07759514  0.06261878    -0.71300
O192        O  0.23742381  0.18282167  0.06538238    -0.71100
C193        C  0.28207380  0.25479475  0.01200844     0.80700
C194        C  0.47368347  0.21927395  0.01199807     0.81100
C195        C  0.42287096  0.29780678  0.07033412     0.80100
C196        C  0.37568603  0.07850162  0.07031507     0.80500
C197        C  0.24632028  0.02738357  0.01195807     0.81600
C198        C  0.20271182  0.12436238  0.07020332     0.80700
C199        C  0.44277392  0.32955622  0.08651362    -0.15000
C200        C  0.44784967  0.34322953  0.10143890     0.09100
C201        C  0.44875413  0.35730200  0.11894130     0.10900
C202        C  0.45366947  0.38118966  0.13277179    -0.15800
C203        C  0.42760797  0.04676395  0.13275610    -0.15000
C204        C  0.40886769  0.05194510  0.11891200     0.09100
C205        C  0.39598839  0.05323618  0.10139995     0.10900
C206        C  0.38755291  0.05857241  0.08647725    -0.15800
C207        C  0.17083976  0.11228196  0.08636376    -0.15000
C208        C  0.15726869  0.10398200  0.10129904     0.09100
C209        C  0.14342054  0.09146990  0.11883471     0.10900
C210        C  0.11963078  0.07303369  0.13271153    -0.15800
C211        C  0.39713467  0.09250734  0.17486498    -0.09700
C212        C  0.42618502  0.06367798  0.17036092    -0.11300
C213        C  0.43720935  0.36275216  0.17039164    -0.09700
C214        C  0.40864958  0.30471615  0.17491448    -0.11300
C215        C  0.13827004  0.07481981  0.17034293    -0.09700
C216        C  0.19637241  0.10388656  0.17487820    -0.11300
C217        C  0.26667828  0.00256178  0.59019374    -0.15000
C218        C  0.26017478  0.48969229  0.57519410     0.09100
C219        C  0.25156994  0.47681671  0.55751474     0.10900
C220        C  0.23669679  0.45360840  0.54345312    -0.15800
C221        C  0.49957030  0.26507369  0.59016253    -0.15000
C222        C  0.01236890  0.27121019  0.57515806     0.09100
C223        C  0.02516448  0.27508223  0.55748064     0.10900
C224        C  0.04834796  0.28310076  0.54342568    -0.15800
C225        C  0.21864345  0.26542170  0.54338008    -0.15000
C226        C  0.22679962  0.25016729  0.55740623     0.09100
C227        C  0.23095135  0.24110095  0.57506312     0.10900
C228        C  0.23729710  0.23437271  0.59005085    -0.15800
C229        C  0.27156600  0.03005553  0.50100734    -0.09700
C230        C  0.24206712  0.47208780  0.50564655    -0.11300
C231        C  0.02996332  0.27063163  0.50561520    -0.09700
C232        C  0.47195354  0.24259155  0.50097211    -0.11300
C233        C  0.23133533  0.26005907  0.50560216    -0.09700
C234        C  0.25940147  0.23032324  0.50099542    -0.11300
C235        C  0.38181506  0.45023694  0.87907901    -0.15000
C236        C  0.35894660  0.44391979  0.89312621     0.09100
C237        C  0.34621071  0.44203180  0.91076918     0.10900
C238        C  0.33304338  0.43673819  0.92574255    -0.15800
C239        C  0.05140484  0.43145229  0.87901247    -0.15000
C240        C  0.05784354  0.41481872  0.89303598     0.09100
C241        C  0.05990031  0.40379451  0.91066350     0.10900
C242        C  0.06528348  0.39580946  0.92562503    -0.15800
C243        C  0.07047703  0.12005598  0.87905300    -0.15000
C244        C  0.08671777  0.14303524  0.89310267     0.09100
C245        C  0.09720344  0.15582627  0.91075229     0.10900
C246        C  0.10487932  0.16895963  0.92572780    -0.15800
C247        C  0.28699799  0.40311757  0.79855938    -0.15000
C248        C  0.31011638  0.41865319  0.78449575     0.09100
C249        C  0.32297546  0.42800897  0.76681783     0.10900
C250        C  0.33591094  0.43492197  0.75181827    -0.15800
C251        C  0.06573908  0.40151575  0.75187551    -0.15000
C252        C  0.07283713  0.39536907  0.76685799     0.09100
C253        C  0.08256869  0.39185029  0.78451548     0.10900
C254        C  0.09837131  0.38441804  0.79855612    -0.15800
C255        C  0.11681805  0.21460961  0.79859099    -0.15000
C256        C  0.10963541  0.19139115  0.78456069     0.09100
C257        C  0.10647484  0.17829928  0.76690541     0.10900
C258        C  0.10055721  0.16523054  0.75191536    -0.15800
C259        C  0.06604597  0.42796911  0.84116385    -0.09700
C260        C  0.09477609  0.39903980  0.83641979    -0.11300
C261        C  0.36322938  0.43559579  0.84120996    -0.09700
C262        C  0.30534815  0.40687653  0.83643981    -0.11300
C263        C  0.07380580  0.13847990  0.84120397    -0.09700
C264        C  0.10249328  0.19631608  0.83645284    -0.11300
C265        C  0.44960791  0.33765009  0.25871724    -0.15000
C266        C  0.44127800  0.32347441  0.24382961     0.09100
C267        C  0.42821151  0.30944891  0.22632994     0.08500
C268        C  0.40888333  0.28581353  0.21248691    -0.15800
C269        C  0.38898144  0.05209854  0.25868371    -0.15000
C270        C  0.38321922  0.06021129  0.24378004     0.09100
C271        C  0.38254509  0.07314513  0.22626873     0.10900
C272        C  0.37848948  0.09249933  0.21242007    -0.15800
C273        C  0.16542205  0.11414224  0.25873008    -0.15000
C274        C  0.17905608  0.11945277  0.24381394     0.09100
C275        C  0.19226957  0.11939148  0.22630249     0.10900
C276        C  0.21542629  0.12283652  0.21245045    -0.15800
C277        C  0.29398819  0.04921445  0.46350096    -0.15000
C278        C  0.29240990  0.02437677  0.45001710     0.09100
C279        C  0.29378500  0.00809336  0.43279226     0.10900
C280        C  0.28896207  0.49295657  0.41798224    -0.15800
C281        C  0.00954786  0.29670592  0.41789372    -0.15000
C282        C  0.49432384  0.28644964  0.43270323     0.09100
C283        C  0.47787946  0.26911914  0.44994836     0.10900
C284        C  0.45285015  0.24620798  0.46346136    -0.15800
C285        C  0.25563912  0.20778938  0.46351672    -0.15000
C286        C  0.23253894  0.20990071  0.45004360     0.09100
C287        C  0.21498210  0.20915475  0.43282723     0.10900
C288        C  0.20471459  0.21432463  0.41803267    -0.15800
Zn289      Zn  0.25131991  0.85078679  0.37966519     1.49700
Zn290      Zn  0.16780746  0.83503002  0.34727829     1.49400
Zn291      Zn  0.09999512  0.75132372  0.37961827     1.49100
Zn292      Zn  0.15222884  0.90238558  0.37964318     1.49500
O293        O  0.16786180  0.83490273  0.37169096    -1.80600
O294        O  0.31523924  0.87812609  0.36009314    -0.71200
O295        O  0.11227644  0.75050383  0.33761156    -0.71100
O296        O  0.13745807  0.72132180  0.39784296    -0.70600
O297        O  0.25235997  0.86412975  0.33765986    -0.71200
O298        O  0.24417997  0.77644959  0.39338412    -0.70800
O299        O  0.06392625  0.68734689  0.36004966    -0.71400
O300        O  0.08422369  0.86435735  0.39777796    -0.70800
O301        O  0.13894554  0.89041696  0.33762810    -0.71600
O302        O  0.03215014  0.75784088  0.39318202    -0.71000
O303        O  0.12475165  0.93877546  0.36008220    -0.71400
O304        O  0.22681593  0.97002077  0.39333335    -0.71300
O305        O  0.28185576  0.91879224  0.39778987    -0.71100
C306        C  0.30702706  0.88067474  0.34407982     0.80700
C307        C  0.07459679  0.69567051  0.34403524     0.81100
C308        C  0.19481411  0.73598216  0.40189087     0.80100
C309        C  0.04119168  0.80694377  0.40174979     0.80500
C310        C  0.12225737  0.92819661  0.34406301     0.81600
C311        C  0.26731402  0.96139389  0.40182974     0.80700
Zn312      Zn  0.41504621  0.93994210  0.29679488     1.49700
Zn313      Zn  0.06271019  0.97659212  0.29678796     1.49400
Zn314      Zn  0.02668767  0.58769874  0.29677358     1.49100
Zn315      Zn  0.00167254  0.00145695  0.32933867     1.49500
O316        O  0.00153778  0.00143786  0.30470870    -1.80600
O317        O  0.41396022  0.87100538  0.28204122    -0.71200
O318        O  0.13185789  0.54490633  0.28205266    -0.71100
O319        O  0.45859321  0.58818993  0.28195273    -0.70600
O320        O  0.51949469  0.90577006  0.27956849    -0.71200
O321        O  0.38715523  0.48270669  0.27959730    -0.70800
O322        O  0.09776552  0.61588136  0.27962436    -0.71400
O323        O  0.02602314  0.58518044  0.33914684    -0.70800
O324        O  0.09874710  0.95054843  0.31654908    -0.71600
O325        O  0.05246551  0.64984304  0.31651883    -0.71000
O326        O  0.06112043  0.97733527  0.33918212    -0.71400
O327        O  0.41774978  0.94188940  0.33917436    -0.71300
O328        O  0.35284175  0.90389954  0.31655913    -0.71100
C329        C  0.46114969  0.87044110  0.27469757     0.80700
C330        C  0.13279509  0.59286865  0.27473684     0.81100
C331        C  0.41040312  0.54088876  0.27467195     0.80100
C332        C  0.04805007  0.64065191  0.33261223     0.80500
C333        C  0.09414700  0.95501883  0.33264417     0.81600
C334        C  0.36209503  0.90870077  0.33265045     0.80700
C335        C  0.16725709  0.83412010  0.80337643     0.49000
H336        H  0.16722198  0.83410833  0.78914588     0.00000
C337        C  0.16735877  0.83413306  0.83640201     0.49000
H338        H  0.16741440  0.83412798  0.85055360     0.00000
C339        C  0.23489371  0.87193786  0.81072198    -0.13700
C340        C  0.12964953  0.86379578  0.81071919    -0.13500
C341        C  0.13733310  0.76661826  0.81073297    -0.13900
C342        C  0.23903213  0.87317964  0.82812719    -0.13800
C343        C  0.12845869  0.86666504  0.82812426    -0.13400
C344        C  0.13458287  0.76253464  0.82813776    -0.13700
C345        C  0.50118849  0.00060731  0.84122169     0.49000
H346        H  0.50109962  0.00065692  0.82707059     0.00000
C347        C  0.50136563  0.50051324  0.87424650     0.49000
H348        H  0.00143719  0.50047860  0.88847796     0.00000
C349        C  0.04017125  0.57220853  0.84949915    -0.13700
C350        C  0.42954920  0.96771102  0.84951146    -0.13500
C351        C  0.03391582  0.96186123  0.84947424    -0.13900
C352        C  0.03900668  0.56805760  0.86690003    -0.13800
C353        C  0.43374061  0.97045065  0.86691490    -0.13400
C354        C  0.03118786  0.96311209  0.86687772    -0.13700
C355        C  0.16801651  0.83399979  0.53862082     0.49000
H356        H  0.16804350  0.83392022  0.55285105     0.00000
C357        C  0.16794112  0.83418539  0.50559226     0.49000
H358        H  0.16789477  0.83426925  0.49144030     0.00000
C359        C  0.20598695  0.90154086  0.53128859    -0.13700
C360        C  0.19752995  0.79632028  0.53125268    -0.13500
C361        C  0.10044546  0.80428073  0.53127550    -0.13900
C362        C  0.20747517  0.90574209  0.51389067    -0.13800
C363        C  0.20004186  0.79484724  0.51385547    -0.13400
C364        C  0.09630788  0.80186399  0.51387660    -0.13700
C365        C  0.33394554  0.66772483  0.46797058     0.49000
H366        H  0.33387639  0.66773631  0.45374568     0.00000
C367        C  0.33412058  0.66769979  0.50102828     0.49000
H368        H  0.33420939  0.66768637  0.51517885     0.00000
C369        C  0.30772574  0.60059101  0.47537383    -0.13700
C370        C  0.40124309  0.70884402  0.47535903    -0.13500
C371        C  0.29304125  0.69371497  0.47538509    -0.13900
C372        C  0.30390328  0.59639549  0.49275974    -0.13800
C373        C  0.40550255  0.70905216  0.49274308    -0.13400
C374        C  0.29290399  0.69766367  0.49276788    -0.13700
Zn375      Zn  0.33460885  0.66745148  0.66116514     1.49700
Zn376      Zn  0.37045012  0.75616745  0.62880777     1.49400
Zn377      Zn  0.38746927  0.63190841  0.62886633     1.49100
Zn378      Zn  0.24563150  0.61421677  0.62882677     1.49500
O379        O  0.33453850  0.66744022  0.63655055    -1.80600
O380        O  0.36853952  0.75135410  0.67119099    -0.71200
O381        O  0.44269647  0.77855521  0.61225060    -0.71100
O382        O  0.42167259  0.60451816  0.64904102    -0.70600
O383        O  0.39757676  0.81795216  0.64895822    -0.71200
O384        O  0.38452465  0.63371580  0.67126834    -0.70800
O385        O  0.45708206  0.69335168  0.61292369    -0.71400
O386        O  0.23726108  0.54463167  0.61294173    -0.70800
O387        O  0.30919566  0.76396992  0.61279105    -0.71600
O388        O  0.33739679  0.55987878  0.61226118    -0.71000
O389        O  0.22367262  0.66388183  0.61215268    -0.71400
O390        O  0.18375872  0.58010573  0.64899274    -0.71300
O391        O  0.25055093  0.61739576  0.67121613    -0.71100
C392        C  0.39295300  0.80744897  0.66502562     0.80700
C393        C  0.46778492  0.74657789  0.60639077     0.81100
C394        C  0.41584110  0.60909139  0.66510735     0.80100
C395        C  0.28002669  0.53437385  0.60640898     0.80500
C396        C  0.25584103  0.72113945  0.60626784     0.81600
C397        C  0.19430923  0.58603658  0.66505875     0.80700
Zn398      Zn  0.46704918  0.55524395  0.71320942     1.49700
Zn399      Zn  0.08930692  0.53477962  0.71320513     1.49400
Zn400      Zn  0.44592929  0.91227306  0.71317586     1.49100
Zn401      Zn  0.00065509  0.50096647  0.68086817     1.49500
O402        O  0.00074156  0.50082008  0.70547163    -1.80600
O403        O  0.03015117  0.62560575  0.72876811    -0.71200
O404        O  0.09665583  0.97187004  0.72872794    -0.71100
O405        O  0.37520766  0.90436845  0.72863284    -0.70600
O406        O  0.11176998  0.60565572  0.73018641    -0.71200
O407        O  0.39601527  0.00625388  0.73015460    -0.70800
O408        O  0.99450682  0.89026224  0.73019707    -0.71400
O409        O  0.45028441  0.91713662  0.67077949    -0.70800
O410        O  0.15125733  0.56343961  0.69304041    -0.71600
O411        O  0.41302390  0.85041807  0.69300325    -0.71000
O412        O  0.08456203  0.53463590  0.67081377    -0.71400
O413        O  0.46726709  0.55120050  0.67083110    -0.71300
O414        O  0.43847681  0.58861358  0.69307901    -0.71100
C415        C  0.08184462  0.63342875  0.73568926     0.80700
C416        C  0.05253350  0.92022133  0.73566946     0.81100
C417        C  0.36776421  0.94826088  0.73559751     0.80100
C418        C  0.41915927  0.86094597  0.67693720     0.80500
C419        C  0.14074711  0.55920478  0.67697341     0.81600
C420        C  0.44271039  0.58253795  0.67700901     0.80700
C421        C  0.33430941  0.66682247  0.20782226     0.49000
H422        H  0.33433676  0.66675846  0.22205214     0.00000
C423        C  0.33421870  0.66696741  0.17477867     0.49000
H424        H  0.33417402  0.66704859  0.16062765     0.00000
C425        C  0.26700804  0.63925193  0.20044668    -0.13700
C426        C  0.37415456  0.73409859  0.20046212    -0.13500
C427        C  0.36169341  0.62727292  0.20042563    -0.13900
C428        C  0.26278015  0.63591564  0.18306981    -0.13800
C429        C  0.37482805  0.73834312  0.18308518    -0.13400
C430        C  0.36506173  0.62656737  0.18304991    -0.13700
C431        C  0.00016145  0.50039609  0.13740470     0.49000
H432        H  0.00008447  0.50037226  0.12317610     0.00000
C433        C  0.50036452  0.50045176  0.17044989     0.49000
H434        H  0.50046032  0.50046147  0.18460187     0.00000
C435        C  0.47171908  0.93308739  0.14478784    -0.13700
C436        C  0.06764437  0.53950118  0.14476183    -0.13500
C437        C  0.46129237  0.52861515  0.14478323    -0.13900
C438        C  0.46878820  0.92901161  0.16217328    -0.13800
C439        C  0.07185600  0.54055108  0.16214577    -0.13400
C440        C  0.46037635  0.53174897  0.16216653    -0.13700
Zn441      Zn  0.07951162  0.77746034  0.96414451     1.49700
Zn442      Zn  0.22381073  0.80217552  0.96417410     1.49400
Zn443      Zn  0.19972567  0.92177282  0.96412757     1.49100
Zn444      Zn  0.16776589  0.83373272  0.99656728     1.49500
O445        O  0.16770133  0.83378952  0.97194048    -1.80600
O446        O  0.07339487  0.70754673  0.94880972    -0.71200
O447        O  0.29386753  0.86627790  0.94880642    -0.71100
O448        O  0.13586572  0.92739147  0.94867683    -0.70600
O449        O  0.17615419  0.73072770  0.94724498    -0.71200
O450        O  0.05558413  0.82472460  0.94717178    -0.70800
O451        O  0.27148834  0.94613045  0.94726001    -0.71400
O452        O  0.19539837  0.91732512  0.00651727    -0.70800
O453        O  0.25864690  0.77534713  0.98420570    -0.71600
O454        O  0.22618937  0.98349974  0.98414799    -0.71000
O455        O  0.22375297  0.80630425  0.00657793    -0.71400
O456        O  0.08396079  0.77760950  0.00654656    -0.71300
O457        O  0.01764585  0.74262351  0.98418179    -0.71100
C458        C  0.11798695  0.70116529  0.94186960     0.80700
C459        C  0.30072089  0.91748490  0.94188049     0.81100
C460        C  0.08450211  0.88277676  0.94176124     0.80100
C461        C  0.22002466  0.97333265  0.00021541     0.80500
C462        C  0.25473812  0.78144754  0.00027495     0.81600
C463        C  0.02781227  0.74659029  0.00025061     0.80700
Zn464      Zn  0.30752334  0.72729679  0.04797018     1.49700
Zn465      Zn  0.33382416  0.66724947  0.01561593     1.49400
Zn466      Zn  0.42083384  0.69369338  0.04798227     1.49100
Zn467      Zn  0.27325204  0.58009268  0.04794100     1.49500
O468        O  0.33387275  0.66709293  0.04014941    -1.80600
O469        O  0.27989866  0.76225757  0.02807795    -0.71200
O470        O  0.41792466  0.69771263  0.00572641    -0.71100
O471        O  0.44683311  0.76358926  0.06544949    -0.70600
O472        O  0.30364102  0.72086799  0.00572164    -0.71200
O473        O  0.37523954  0.79691811  0.06278552    -0.70800
O474        O  0.48349409  0.72143447  0.02806521    -0.71400
O475        O  0.31723410  0.55452372  0.06545154    -0.70800
O476        O  0.28007005  0.58320780  0.00568886    -0.71600
O477        O  0.42269715  0.62609330  0.06275230    -0.71000
O478        O  0.23877076  0.51751001  0.02802269    -0.71400
O479        O  0.20324395  0.57759514  0.06261879    -0.71300
O480        O  0.23742375  0.68282165  0.06538238    -0.71100
C481        C  0.28207379  0.75479474  0.01200845     0.80700
C482        C  0.47368348  0.71927399  0.01199807     0.81100
C483        C  0.42287093  0.79780679  0.07033412     0.80100
C484        C  0.37568607  0.57850169  0.07031508     0.80500
C485        C  0.24632029  0.52738357  0.01195807     0.81600
C486        C  0.20271179  0.62436236  0.07020332     0.80700
C487        C  0.44277386  0.82955622  0.08651362    -0.15000
C488        C  0.44784956  0.84322952  0.10143890     0.09100
C489        C  0.44875397  0.85730198  0.11894130     0.10900
C490        C  0.45366935  0.88118966  0.13277179    -0.15800
C491        C  0.42760793  0.54676392  0.13275611    -0.15000
C492        C  0.40886767  0.55194510  0.11891201     0.09100
C493        C  0.39598840  0.55323623  0.10139996     0.10900
C494        C  0.38755295  0.55857248  0.08647725    -0.15800
C495        C  0.17083970  0.61228192  0.08636375    -0.15000
C496        C  0.15726863  0.60398196  0.10129904     0.09100
C497        C  0.14342048  0.59146987  0.11883470     0.10900
C498        C  0.11963073  0.57303367  0.13271152    -0.15800
C499        C  0.39713465  0.59250734  0.17486498    -0.09700
C500        C  0.42618498  0.56367796  0.17036092    -0.11300
C501        C  0.43720935  0.86275217  0.17039163    -0.09700
C502        C  0.40864957  0.80471615  0.17491448    -0.11300
C503        C  0.13827002  0.57481979  0.17034293    -0.09700
C504        C  0.19637239  0.60388654  0.17487819    -0.11300
C505        C  0.26667823  0.50256179  0.59019374    -0.15000
C506        C  0.26017485  0.98969228  0.57519410     0.09100
C507        C  0.25157001  0.97681670  0.55751474     0.10900
C508        C  0.23669683  0.95360839  0.54345312    -0.15800
C509        C  0.49957032  0.76507369  0.59016254    -0.15000
C510        C  0.01236894  0.77121018  0.57515806     0.09100
C511        C  0.02516449  0.77508222  0.55748063     0.10900
C512        C  0.04834794  0.78310076  0.54342567    -0.15800
C513        C  0.21864340  0.76542167  0.54338007    -0.15000
C514        C  0.22679960  0.75016728  0.55740623     0.09100
C515        C  0.23095139  0.74110100  0.57506312     0.10900
C516        C  0.23729717  0.73437280  0.59005085    -0.15800
C517        C  0.27156595  0.53005552  0.50100733    -0.09700
C518        C  0.24206716  0.97208780  0.50564655    -0.11300
C519        C  0.02996332  0.77063166  0.50561519    -0.09700
C520        C  0.47195353  0.74259151  0.50097211    -0.11300
C521        C  0.23133532  0.76005909  0.50560216    -0.09700
C522        C  0.25940147  0.73032327  0.50099542    -0.11300
C523        C  0.38181507  0.95023693  0.87907900    -0.15000
C524        C  0.35894658  0.94391978  0.89312620     0.09100
C525        C  0.34621068  0.94203179  0.91076917     0.10900
C526        C  0.33304337  0.93673818  0.92574254    -0.15800
C527        C  0.05140484  0.93145231  0.87901247    -0.15000
C528        C  0.05784347  0.91481873  0.89303598     0.09100
C529        C  0.05990021  0.90379451  0.91066351     0.10900
C530        C  0.06528340  0.89580946  0.92562504    -0.15800
C531        C  0.07047707  0.62005596  0.87905300    -0.15000
C532        C  0.08671782  0.64303522  0.89310267     0.09100
C533        C  0.09720348  0.65582626  0.91075229     0.10900
C534        C  0.10487934  0.66895962  0.92572780    -0.15800
C535        C  0.28699802  0.90311756  0.79855938    -0.15000
C536        C  0.31011642  0.91865317  0.78449575     0.09100
C537        C  0.32297551  0.92800896  0.76681783     0.10900
C538        C  0.33591098  0.93492195  0.75181827    -0.15800
C539        C  0.06573907  0.90151574  0.75187552    -0.15000
C540        C  0.07283711  0.89536906  0.76685800     0.09100
C541        C  0.08256869  0.89185028  0.78451549     0.10900
C542        C  0.09837133  0.88441804  0.79855613    -0.15800
C543        C  0.11681801  0.71460960  0.79859099    -0.15000
C544        C  0.10963532  0.69139114  0.78456069     0.09100
C545        C  0.10647473  0.67829927  0.76690542     0.10900
C546        C  0.10055711  0.66523054  0.75191536    -0.15800
C547        C  0.06604601  0.92796914  0.84116385    -0.09700
C548        C  0.09477614  0.89903982  0.83641979    -0.11300
C549        C  0.36322941  0.93559579  0.84120996    -0.09700
C550        C  0.30534818  0.90687653  0.83643981    -0.11300
C551        C  0.07380583  0.63847989  0.84120397    -0.09700
C552        C  0.10249331  0.69631607  0.83645284    -0.11300
C553        C  0.44960786  0.83765009  0.25871724    -0.15000
C554        C  0.44127787  0.82347442  0.24382961     0.09100
C555        C  0.42821133  0.80944892  0.22632994     0.08500
C556        C  0.40888318  0.78581355  0.21248691    -0.15800
C557        C  0.38898144  0.55209856  0.25868371    -0.15000
C558        C  0.38321924  0.56021132  0.24378004     0.09100
C559        C  0.38254511  0.57314517  0.22626873     0.10900
C560        C  0.37848949  0.59249937  0.21242007    -0.15800
C561        C  0.16542210  0.61414223  0.25873008    -0.15000
C562        C  0.17905611  0.61945275  0.24381394     0.09100
C563        C  0.19226956  0.61939145  0.22630249     0.10900
C564        C  0.21542625  0.62283649  0.21245045    -0.15800
C565        C  0.29398815  0.54921445  0.46350095    -0.15000
C566        C  0.29240991  0.52437678  0.45001710     0.09100
C567        C  0.29378504  0.50809336  0.43279226     0.10900
C568        C  0.28896201  0.99295657  0.41798224    -0.15800
C569        C  0.00954777  0.79670590  0.41789370    -0.15000
C570        C  0.49432386  0.78644963  0.43270323     0.09100
C571        C  0.47787946  0.76911909  0.44994836     0.10900
C572        C  0.45285013  0.74620791  0.46346136    -0.15800
C573        C  0.25563910  0.70778941  0.46351672    -0.15000
C574        C  0.23253891  0.70990074  0.45004361     0.09100
C575        C  0.21498209  0.70915480  0.43282723     0.10900
C576        C  0.20471461  0.71432469  0.41803267    -0.15800
Zn577      Zn  0.75131991  0.35078677  0.37966519     1.49700
Zn578      Zn  0.66780746  0.33503002  0.34727829     1.49400
Zn579      Zn  0.59999513  0.25132370  0.37961827     1.49100
Zn580      Zn  0.65222885  0.40238556  0.37964318     1.49500
O581        O  0.66786181  0.33490271  0.37169096    -1.80600
O582        O  0.81523924  0.37812608  0.36009314    -0.71200
O583        O  0.61227646  0.25050382  0.33761155    -0.71100
O584        O  0.63745806  0.22132175  0.39784296    -0.70600
O585        O  0.75235998  0.36412976  0.33765987    -0.71200
O586        O  0.74417997  0.27644955  0.39338412    -0.70800
O587        O  0.56392626  0.18734689  0.36004966    -0.71400
O588        O  0.58422372  0.36435734  0.39777796    -0.70800
O589        O  0.63894554  0.39041694  0.33762810    -0.71600
O590        O  0.53215016  0.25784088  0.39318202    -0.71000
O591        O  0.62475165  0.43877544  0.36008220    -0.71400
O592        O  0.72681595  0.47002078  0.39333334    -0.71300
O593        O  0.78185574  0.41879222  0.39778988    -0.71100
C594        C  0.80702706  0.38067475  0.34407983     0.80700
C595        C  0.57459681  0.19567051  0.34403523     0.81100
C596        C  0.69481410  0.23598212  0.40189087     0.80100
C597        C  0.54119171  0.30694377  0.40174979     0.80500
C598        C  0.62225736  0.42819659  0.34406301     0.81600
C599        C  0.76731401  0.46139388  0.40182973     0.80700
Zn600      Zn  0.91504622  0.43994210  0.29679489     1.49700
Zn601      Zn  0.56271016  0.47659211  0.29678796     1.49400
Zn602      Zn  0.52668763  0.08769873  0.29677357     1.49100
Zn603      Zn  0.50167254  0.50145696  0.32933868     1.49500
O604        O  0.50153776  0.50143786  0.30470871    -1.80600
O605        O  0.91396018  0.37100533  0.28204124    -0.71200
O606        O  0.63185789  0.04490636  0.28205266    -0.71100
O607        O  0.95859319  0.08818993  0.28195274    -0.70600
O608        O  0.01949466  0.40577007  0.27956850    -0.71200
O609        O  0.88715530  0.98270668  0.27959728    -0.70800
O610        O  0.59776545  0.11588133  0.27962435    -0.71400
O611        O  0.52602315  0.08518043  0.33914684    -0.70800
O612        O  0.59874703  0.45054837  0.31654908    -0.71600
O613        O  0.55246552  0.14984304  0.31651882    -0.71000
O614        O  0.56112046  0.47733529  0.33918213    -0.71400
O615        O  0.91774979  0.44188940  0.33917437    -0.71300
O616        O  0.85284175  0.40389956  0.31655913    -0.71100
C617        C  0.96114966  0.37044107  0.27469758     0.80700
C618        C  0.63279505  0.09286865  0.27473684     0.81100
C619        C  0.91040315  0.04088874  0.27467194     0.80100
C620        C  0.54805008  0.14065191  0.33261223     0.80500
C621        C  0.59414697  0.45501881  0.33264417     0.81600
C622        C  0.86209504  0.40870079  0.33265046     0.80700
C623        C  0.66725709  0.33412011  0.80337642     0.49000
H624        H  0.66722198  0.33410834  0.78914588     0.00000
C625        C  0.66735876  0.33413306  0.83640201     0.49000
H626        H  0.66741438  0.33412798  0.85055359     0.00000
C627        C  0.73489371  0.37193787  0.81072198    -0.13700
C628        C  0.62964951  0.36379577  0.81071919    -0.13500
C629        C  0.63733311  0.26661827  0.81073297    -0.13900
C630        C  0.73903211  0.37317965  0.82812719    -0.13800
C631        C  0.62845867  0.36666503  0.82812426    -0.13400
C632        C  0.63458287  0.26253464  0.82813775    -0.13700
C633        C  0.00118847  0.50060730  0.84122169     0.49000
H634        H  0.00109960  0.50065691  0.82707059     0.00000
C635        C  0.00136563  0.00051325  0.87424650     0.49000
H636        H  0.50143723  0.00047863  0.88847796     0.00000
C637        C  0.54017126  0.07220855  0.84949915    -0.13700
C638        C  0.92954917  0.46771101  0.84951146    -0.13500
C639        C  0.53391578  0.46186119  0.84947424    -0.13900
C640        C  0.53900671  0.06805763  0.86690003    -0.13800
C641        C  0.93374058  0.47045064  0.86691490    -0.13400
C642        C  0.53118783  0.46311205  0.86687772    -0.13700
C643        C  0.66801655  0.33399980  0.53862082     0.49000
H644        H  0.66804354  0.33392023  0.55285106     0.00000
C645        C  0.66794114  0.33418539  0.50559227     0.49000
H646        H  0.66789478  0.33426925  0.49144030     0.00000
C647        C  0.70598697  0.40154087  0.53128860    -0.13700
C648        C  0.69752999  0.29632031  0.53125268    -0.13500
C649        C  0.60044549  0.30428073  0.53127550    -0.13900
C650        C  0.70747518  0.40574210  0.51389068    -0.13800
C651        C  0.70004189  0.29484726  0.51385547    -0.13400
C652        C  0.59630791  0.30186399  0.51387661    -0.13700
C653        C  0.83394556  0.16772484  0.46797058     0.49000
H654        H  0.83387641  0.16773632  0.45374569     0.00000
C655        C  0.83412057  0.16769978  0.50102828     0.49000
H656        H  0.83420937  0.16768636  0.51517885     0.00000
C657        C  0.80772574  0.10059101  0.47537383    -0.13700
C658        C  0.90124309  0.20884402  0.47535903    -0.13500
C659        C  0.79304127  0.19371498  0.47538509    -0.13900
C660        C  0.80390328  0.09639550  0.49275974    -0.13800
C661        C  0.90550254  0.20905216  0.49274309    -0.13400
C662        C  0.79290398  0.19766367  0.49276788    -0.13700
Zn663      Zn  0.83460885  0.16745147  0.66116515     1.49700
Zn664      Zn  0.87045005  0.25616740  0.62880778     1.49400
Zn665      Zn  0.88746929  0.13190842  0.62886633     1.49100
Zn666      Zn  0.74563148  0.11421669  0.62882678     1.49500
O667        O  0.83453848  0.16744019  0.63655056    -1.80600
O668        O  0.86853952  0.25135410  0.67119099    -0.71200
O669        O  0.94269638  0.27855517  0.61225060    -0.71100
O670        O  0.92167262  0.10451818  0.64904103    -0.70600
O671        O  0.89757673  0.31795214  0.64895822    -0.71200
O672        O  0.88452466  0.13371581  0.67126834    -0.70800
O673        O  0.95708208  0.19335172  0.61292369    -0.71400
O674        O  0.73726110  0.04463162  0.61294173    -0.70800
O675        O  0.80919556  0.26396981  0.61279105    -0.71600
O676        O  0.83739684  0.05987880  0.61226118    -0.71000
O677        O  0.72367254  0.16388171  0.61215268    -0.71400
O678        O  0.68375871  0.08010564  0.64899274    -0.71300
O679        O  0.75055092  0.11739573  0.67121613    -0.71100
C680        C  0.89295300  0.30744896  0.66502562     0.80700
C681        C  0.96778487  0.24657790  0.60639077     0.81100
C682        C  0.91584112  0.10909141  0.66510735     0.80100
C683        C  0.78002674  0.03437384  0.60640898     0.80500
C684        C  0.75584095  0.22113933  0.60626784     0.81600
C685        C  0.69430922  0.08603652  0.66505875     0.80700
Zn686      Zn  0.96704923  0.05524395  0.71320942     1.49700
Zn687      Zn  0.58930693  0.03477961  0.71320513     1.49400
Zn688      Zn  0.94592926  0.41227307  0.71317586     1.49100
Zn689      Zn  0.50065509  0.00096646  0.68086817     1.49500
O690        O  0.50074158  0.00082007  0.70547163    -1.80600
O691        O  0.53015119  0.12560576  0.72876811    -0.71200
O692        O  0.59665580  0.47187005  0.72872793    -0.71100
O693        O  0.87520762  0.40436846  0.72863283    -0.70600
O694        O  0.61177000  0.10565572  0.73018641    -0.71200
O695        O  0.89601524  0.50625389  0.73015460    -0.70800
O696        O  0.49450680  0.39026223  0.73019706    -0.71400
O697        O  0.95028443  0.41713662  0.67077949    -0.70800
O698        O  0.65125733  0.06343958  0.69304041    -0.71600
O699        O  0.91302390  0.35041808  0.69300325    -0.71000
O700        O  0.58456202  0.03463585  0.67081377    -0.71400
O701        O  0.96726713  0.05120055  0.67083110    -0.71300
O702        O  0.93847683  0.08861359  0.69307901    -0.71100
C703        C  0.58184463  0.13342875  0.73568926     0.80700
C704        C  0.55253349  0.42022133  0.73566945     0.81100
C705        C  0.86776418  0.44826089  0.73559751     0.80100
C706        C  0.91915928  0.36094598  0.67693719     0.80500
C707        C  0.64074711  0.05920473  0.67697341     0.81600
C708        C  0.94271042  0.08253798  0.67700901     0.80700
C709        C  0.83430944  0.16682247  0.20782226     0.49000
H710        H  0.83433678  0.16675846  0.22205214     0.00000
C711        C  0.83421872  0.16696741  0.17477867     0.49000
H712        H  0.83417404  0.16704860  0.16062766     0.00000
C713        C  0.76700807  0.13925193  0.20044668    -0.13700
C714        C  0.87415459  0.23409859  0.20046212    -0.13500
C715        C  0.86169344  0.12727292  0.20042563    -0.13900
C716        C  0.76278018  0.13591564  0.18306981    -0.13800
C717        C  0.87482808  0.23834312  0.18308518    -0.13400
C718        C  0.86506176  0.12656737  0.18304991    -0.13700
C719        C  0.50016148  0.00039610  0.13740470     0.49000
H720        H  0.50008450  0.00037225  0.12317610     0.00000
C721        C  0.00036455  0.00045177  0.17044989     0.49000
H722        H  0.00046034  0.00046147  0.18460187     0.00000
C723        C  0.97171907  0.43308739  0.14478784    -0.13700
C724        C  0.56764440  0.03950117  0.14476183    -0.13500
C725        C  0.96129240  0.02861517  0.14478323    -0.13900
C726        C  0.96878819  0.42901161  0.16217328    -0.13800
C727        C  0.57185602  0.04055108  0.16214577    -0.13400
C728        C  0.96037638  0.03174898  0.16216653    -0.13700
Zn729      Zn  0.57951158  0.27746032  0.96414451     1.49700
Zn730      Zn  0.72381066  0.30217548  0.96417411     1.49400
Zn731      Zn  0.69972564  0.42177280  0.96412757     1.49100
Zn732      Zn  0.66776584  0.33373273  0.99656729     1.49500
O733        O  0.66770128  0.33378951  0.97194048    -1.80600
O734        O  0.57339482  0.20754670  0.94880972    -0.71200
O735        O  0.79386751  0.36627783  0.94880644    -0.71100
O736        O  0.63586570  0.42739148  0.94867684    -0.70600
O737        O  0.67615415  0.23072770  0.94724498    -0.71200
O738        O  0.55558412  0.32472460  0.94717178    -0.70800
O739        O  0.77148825  0.44613033  0.94726000    -0.71400
O740        O  0.69539834  0.41732514  0.00651727    -0.70800
O741        O  0.75864677  0.27534706  0.98420571    -0.71600
O742        O  0.72618941  0.48349974  0.98414799    -0.71000
O743        O  0.72375294  0.30630426  0.00657794    -0.71400
O744        O  0.58396076  0.27760953  0.00654656    -0.71300
O745        O  0.51764581  0.24262351  0.98418179    -0.71100
C746        C  0.61798692  0.20116528  0.94186960     0.80700
C747        C  0.80072082  0.41748478  0.94188049     0.81100
C748        C  0.58450210  0.38277677  0.94176125     0.80100
C749        C  0.72002468  0.47333267  0.00021541     0.80500
C750        C  0.75473804  0.28144751  0.00027496     0.81600
C751        C  0.52781223  0.24659030  0.00025061     0.80700
Zn752      Zn  0.80752334  0.22729680  0.04797018     1.49700
Zn753      Zn  0.83382416  0.16724950  0.01561593     1.49400
Zn754      Zn  0.92083384  0.19369338  0.04798227     1.49100
Zn755      Zn  0.77325207  0.08009269  0.04794100     1.49500
O756        O  0.83387277  0.16709294  0.04014941    -1.80600
O757        O  0.77989861  0.26225755  0.02807796    -0.71200
O758        O  0.91792467  0.19771261  0.00572641    -0.71100
O759        O  0.94683312  0.26358926  0.06544949    -0.70600
O760        O  0.80364102  0.22086803  0.00572164    -0.71200
O761        O  0.87523956  0.29691812  0.06278552    -0.70800
O762        O  0.98349411  0.22143443  0.02806521    -0.71400
O763        O  0.81723411  0.05452374  0.06545154    -0.70800
O764        O  0.78007000  0.08320783  0.00568886    -0.71600
O765        O  0.92269716  0.12609330  0.06275230    -0.71000
O766        O  0.73877084  0.01751002  0.02802269    -0.71400
O767        O  0.70324395  0.07759514  0.06261878    -0.71300
O768        O  0.73742378  0.18282165  0.06538238    -0.71100
C769        C  0.78207374  0.25479473  0.01200845     0.80700
C770        C  0.97368350  0.21927395  0.01199807     0.81100
C771        C  0.92287095  0.29780679  0.07033412     0.80100
C772        C  0.87568608  0.07850170  0.07031508     0.80500
C773        C  0.74632032  0.02738359  0.01195807     0.81600
C774        C  0.70271180  0.12436236  0.07020331     0.80700
C775        C  0.94277387  0.32955622  0.08651362    -0.15000
C776        C  0.94784958  0.34322953  0.10143890     0.09100
C777        C  0.94875399  0.35730199  0.11894130     0.10900
C778        C  0.95366936  0.38118966  0.13277179    -0.15800
C779        C  0.92760793  0.04676390  0.13275611    -0.15000
C780        C  0.90886764  0.05194507  0.11891201     0.09100
C781        C  0.89598836  0.05323622  0.10139996     0.10900
C782        C  0.88755293  0.05857249  0.08647726    -0.15800
C783        C  0.67083972  0.11228192  0.08636375    -0.15000
C784        C  0.65726865  0.10398196  0.10129904     0.09100
C785        C  0.64342050  0.09146987  0.11883470     0.10900
C786        C  0.61963075  0.07303366  0.13271152    -0.15800
C787        C  0.89713467  0.09250734  0.17486498    -0.09700
C788        C  0.92618500  0.06367796  0.17036092    -0.11300
C789        C  0.93720935  0.36275217  0.17039163    -0.09700
C790        C  0.90864958  0.30471616  0.17491448    -0.11300
C791        C  0.63827004  0.07481979  0.17034293    -0.09700
C792        C  0.69637241  0.10388654  0.17487819    -0.11300
C793        C  0.76667829  0.00256179  0.59019374    -0.15000
C794        C  0.76017486  0.48969229  0.57519411     0.09100
C795        C  0.75157002  0.47681672  0.55751474     0.10900
C796        C  0.73669684  0.45360840  0.54345312    -0.15800
C797        C  0.99957025  0.26507370  0.59016253    -0.15000
C798        C  0.51236894  0.27121017  0.57515806     0.09100
C799        C  0.52516449  0.27508222  0.55748063     0.10900
C800        C  0.54834797  0.28310076  0.54342567    -0.15800
C801        C  0.71864344  0.26542169  0.54338008    -0.15000
C802        C  0.72679962  0.25016726  0.55740623     0.09100
C803        C  0.73095136  0.24110092  0.57506311     0.10900
C804        C  0.73729710  0.23437268  0.59005085    -0.15800
C805        C  0.77156594  0.03005553  0.50100733    -0.09700
C806        C  0.74206713  0.47208781  0.50564655    -0.11300
C807        C  0.52996335  0.27063166  0.50561519    -0.09700
C808        C  0.97195351  0.24259152  0.50097211    -0.11300
C809        C  0.73133534  0.26005910  0.50560216    -0.09700
C810        C  0.75940148  0.23032327  0.50099542    -0.11300
C811        C  0.88181503  0.45023691  0.87907900    -0.15000
C812        C  0.85894649  0.44391970  0.89312620     0.09100
C813        C  0.84621056  0.44203163  0.91076916     0.10900
C814        C  0.83304326  0.43673801  0.92574254    -0.15800
C815        C  0.55140481  0.43145227  0.87901247    -0.15000
C816        C  0.55784346  0.41481871  0.89303599     0.09100
C817        C  0.55990022  0.40379452  0.91066351     0.10900
C818        C  0.56528341  0.39580948  0.92562504    -0.15800
C819        C  0.57047709  0.12005599  0.87905299    -0.15000
C820        C  0.58671784  0.14303524  0.89310266     0.09100
C821        C  0.59720348  0.15582626  0.91075229     0.10900
C822        C  0.60487932  0.16895962  0.92572780    -0.15800
C823        C  0.78699802  0.40311756  0.79855938    -0.15000
C824        C  0.81011643  0.41865318  0.78449575     0.09100
C825        C  0.82297551  0.42800896  0.76681783     0.10900
C826        C  0.83591096  0.43492196  0.75181827    -0.15800
C827        C  0.56573909  0.40151574  0.75187551    -0.15000
C828        C  0.57283713  0.39536907  0.76685799     0.09100
C829        C  0.58256870  0.39185029  0.78451548     0.10900
C830        C  0.59837133  0.38441804  0.79855612    -0.15800
C831        C  0.61681802  0.21460961  0.79859099    -0.15000
C832        C  0.60963534  0.19139115  0.78456069     0.09100
C833        C  0.60647475  0.17829927  0.76690541     0.10900
C834        C  0.60055713  0.16523054  0.75191536    -0.15800
C835        C  0.56604597  0.42796910  0.84116385    -0.09700
C836        C  0.59477610  0.39903979  0.83641979    -0.11300
C837        C  0.86322939  0.43559579  0.84120996    -0.09700
C838        C  0.80534817  0.40687653  0.83643981    -0.11300
C839        C  0.57380584  0.13847990  0.84120397    -0.09700
C840        C  0.60249332  0.19631608  0.83645284    -0.11300
C841        C  0.94960781  0.33765008  0.25871725    -0.15000
C842        C  0.94127783  0.32347442  0.24382962     0.09100
C843        C  0.92821132  0.30944892  0.22632995     0.08500
C844        C  0.90888320  0.28581355  0.21248692    -0.15800
C845        C  0.88898146  0.05209855  0.25868370    -0.15000
C846        C  0.88321926  0.06021131  0.24378003     0.09100
C847        C  0.88254513  0.07314516  0.22626873     0.10900
C848        C  0.87848951  0.09249936  0.21242007    -0.15800
C849        C  0.66542207  0.11414223  0.25873008    -0.15000
C850        C  0.67905610  0.11945276  0.24381394     0.09100
C851        C  0.69226958  0.11939146  0.22630249     0.10900
C852        C  0.71542628  0.12283650  0.21245045    -0.15800
C853        C  0.79398812  0.04921445  0.46350095    -0.15000
C854        C  0.79240984  0.02437677  0.45001710     0.09100
C855        C  0.79378497  0.00809335  0.43279226     0.10900
C856        C  0.78896195  0.49295656  0.41798224    -0.15800
C857        C  0.50954782  0.29670590  0.41789371    -0.15000
C858        C  0.99432389  0.28644963  0.43270324     0.09100
C859        C  0.97787948  0.26911910  0.44994837     0.10900
C860        C  0.95285015  0.24620793  0.46346137    -0.15800
C861        C  0.75563912  0.20778942  0.46351672    -0.15000
C862        C  0.73253892  0.20990073  0.45004360     0.09100
C863        C  0.71498209  0.20915476  0.43282723     0.10900
C864        C  0.70471460  0.21432464  0.41803267    -0.15800
Zn865      Zn  0.75131993  0.85078680  0.37966518     1.49700
Zn866      Zn  0.66780746  0.83503001  0.34727829     1.49400
Zn867      Zn  0.59999513  0.75132371  0.37961827     1.49100
Zn868      Zn  0.65222884  0.90238557  0.37964318     1.49500
O869        O  0.66786181  0.83490272  0.37169096    -1.80600
O870        O  0.81523923  0.87812607  0.36009312    -0.71200
O871        O  0.61227649  0.75050382  0.33761156    -0.71100
O872        O  0.63745808  0.72132175  0.39784295    -0.70600
O873        O  0.75235995  0.86412976  0.33765985    -0.71200
O874        O  0.74417999  0.77644961  0.39338412    -0.70800
O875        O  0.56392622  0.68734689  0.36004966    -0.71400
O876        O  0.58422369  0.86435735  0.39777796    -0.70800
O877        O  0.63894553  0.89041693  0.33762810    -0.71600
O878        O  0.53215019  0.75784088  0.39318203    -0.71000
O879        O  0.62475166  0.93877544  0.36008220    -0.71400
O880        O  0.72681592  0.97002076  0.39333335    -0.71300
O881        O  0.78185580  0.91879227  0.39778986    -0.71100
C882        C  0.80702704  0.88067474  0.34407981     0.80700
C883        C  0.57459680  0.69567051  0.34403523     0.81100
C884        C  0.69481413  0.73598215  0.40189087     0.80100
C885        C  0.54119172  0.80694377  0.40174979     0.80500
C886        C  0.62225737  0.92819659  0.34406301     0.81600
C887        C  0.76731403  0.96139390  0.40182973     0.80700
Zn888      Zn  0.91504621  0.93994210  0.29679488     1.49700
Zn889      Zn  0.56271019  0.97659211  0.29678796     1.49400
Zn890      Zn  0.52668764  0.58769873  0.29677357     1.49100
Zn891      Zn  0.50167257  0.00145696  0.32933868     1.49500
O892        O  0.50153779  0.00143786  0.30470871    -1.80600
O893        O  0.91396023  0.87100538  0.28204121    -0.71200
O894        O  0.63185789  0.54490634  0.28205267    -0.71100
O895        O  0.95859325  0.58818992  0.28195273    -0.70600
O896        O  0.01949471  0.90577004  0.27956850    -0.71200
O897        O  0.88715531  0.48270667  0.27959729    -0.70800
O898        O  0.59776547  0.61588132  0.27962435    -0.71400
O899        O  0.52602313  0.58518043  0.33914684    -0.70800
O900        O  0.59874706  0.95054837  0.31654908    -0.71600
O901        O  0.55246553  0.64984304  0.31651882    -0.71000
O902        O  0.56112049  0.97733530  0.33918212    -0.71400
O903        O  0.91774975  0.94188941  0.33917435    -0.71300
O904        O  0.85284172  0.90389952  0.31655911    -0.71100
C905        C  0.96114972  0.87044109  0.27469757     0.80700
C906        C  0.63279507  0.59286863  0.27473684     0.81100
C907        C  0.91040319  0.54088873  0.27467194     0.80100
C908        C  0.54805008  0.64065191  0.33261223     0.80500
C909        C  0.59414700  0.95501882  0.33264417     0.81600
C910        C  0.86209501  0.90870077  0.33265044     0.80700
C911        C  0.66725707  0.83412009  0.80337642     0.49000
H912        H  0.66722196  0.83410832  0.78914588     0.00000
C913        C  0.66735875  0.83413305  0.83640201     0.49000
H914        H  0.66741437  0.83412798  0.85055360     0.00000
C915        C  0.73489369  0.87193789  0.81072198    -0.13700
C916        C  0.62964948  0.86379574  0.81071919    -0.13500
C917        C  0.63733312  0.76661826  0.81073297    -0.13900
C918        C  0.73903210  0.87317966  0.82812719    -0.13800
C919        C  0.62845864  0.86666501  0.82812426    -0.13400
C920        C  0.63458286  0.76253463  0.82813776    -0.13700
C921        C  0.00118847  0.00060731  0.84122168     0.49000
H922        H  0.00109960  0.00065691  0.82707058     0.00000
C923        C  0.00136561  0.50051324  0.87424650     0.49000
H924        H  0.50143721  0.50047861  0.88847796     0.00000
C925        C  0.54017125  0.57220853  0.84949915    -0.13700
C926        C  0.92954917  0.96771100  0.84951146    -0.13500
C927        C  0.53391582  0.96186122  0.84947424    -0.13900
C928        C  0.53900670  0.56805760  0.86690003    -0.13800
C929        C  0.93374059  0.97045064  0.86691490    -0.13400
C930        C  0.53118787  0.96311209  0.86687772    -0.13700
C931        C  0.66801656  0.83399979  0.53862082     0.49000
H932        H  0.66804356  0.83392022  0.55285105     0.00000
C933        C  0.66794115  0.83418538  0.50559226     0.49000
H934        H  0.66789479  0.83426924  0.49144030     0.00000
C935        C  0.70598696  0.90154086  0.53128859    -0.13700
C936        C  0.69753003  0.79632031  0.53125268    -0.13500
C937        C  0.60044550  0.80428070  0.53127550    -0.13900
C938        C  0.70747517  0.90574209  0.51389067    -0.13800
C939        C  0.70004191  0.79484727  0.51385547    -0.13400
C940        C  0.59630791  0.80186396  0.51387660    -0.13700
C941        C  0.83394553  0.66772482  0.46797058     0.49000
H942        H  0.83387638  0.66773629  0.45374568     0.00000
C943        C  0.83412058  0.66769978  0.50102828     0.49000
H944        H  0.83420938  0.66768637  0.51517885     0.00000
C945        C  0.80772572  0.60059100  0.47537383    -0.13700
C946        C  0.90124308  0.70884401  0.47535903    -0.13500
C947        C  0.79304125  0.69371496  0.47538509    -0.13900
C948        C  0.80390328  0.59639549  0.49275974    -0.13800
C949        C  0.90550254  0.70905216  0.49274308    -0.13400
C950        C  0.79290398  0.69766366  0.49276788    -0.13700
Zn951      Zn  0.83460887  0.66745148  0.66116514     1.49700
Zn952      Zn  0.87045005  0.75616742  0.62880777     1.49400
Zn953      Zn  0.88746930  0.63190843  0.62886633     1.49100
Zn954      Zn  0.74563148  0.61421674  0.62882677     1.49500
O955        O  0.83453848  0.66744021  0.63655055    -1.80600
O956        O  0.86853956  0.75135411  0.67119099    -0.71200
O957        O  0.94269636  0.77855515  0.61225059    -0.71100
O958        O  0.92167261  0.60451817  0.64904102    -0.70600
O959        O  0.89757675  0.81795215  0.64895821    -0.71200
O960        O  0.88452466  0.63371580  0.67126833    -0.70800
O961        O  0.95708211  0.69335173  0.61292370    -0.71400
O962        O  0.73726111  0.54463168  0.61294172    -0.70800
O963        O  0.80919556  0.76396987  0.61279106    -0.71600
O964        O  0.83739683  0.55987881  0.61226118    -0.71000
O965        O  0.72367253  0.66388177  0.61215269    -0.71400
O966        O  0.68375872  0.58010570  0.64899274    -0.71300
O967        O  0.75055095  0.61739577  0.67121613    -0.71100
C968        C  0.89295303  0.80744898  0.66502561     0.80700
C969        C  0.96778488  0.74657789  0.60639077     0.81100
C970        C  0.91584111  0.60909140  0.66510735     0.80100
C971        C  0.78002674  0.53437386  0.60640898     0.80500
C972        C  0.75584094  0.72113940  0.60626785     0.81600
C973        C  0.69430924  0.58603657  0.66505875     0.80700
Zn974      Zn  0.96704915  0.55524394  0.71320942     1.49700
Zn975      Zn  0.58930692  0.53477961  0.71320513     1.49400
Zn976      Zn  0.94592932  0.91227307  0.71317585     1.49100
Zn977      Zn  0.50065510  0.50096647  0.68086817     1.49500
O978        O  0.50074157  0.50082008  0.70547163    -1.80600
O979        O  0.53015121  0.62560580  0.72876810    -0.71200
O980        O  0.59665583  0.97187007  0.72872793    -0.71100
O981        O  0.87520766  0.90436844  0.72863283    -0.70600
O982        O  0.61176997  0.60565570  0.73018641    -0.71200
O983        O  0.89601537  0.00625389  0.73015461    -0.70800
O984        O  0.49450685  0.89026222  0.73019706    -0.71400
O985        O  0.95028438  0.91713664  0.67077949    -0.70800
O986        O  0.65125735  0.56343962  0.69304041    -0.71600
O987        O  0.91302400  0.85041808  0.69300325    -0.71000
O988        O  0.58456204  0.53463590  0.67081377    -0.71400
O989        O  0.96726707  0.55120048  0.67083110    -0.71300
O990        O  0.93847683  0.58861360  0.69307901    -0.71100
C991        C  0.58184464  0.63342876  0.73568926     0.80700
C992        C  0.55253354  0.92022134  0.73566945     0.81100
C993        C  0.86776427  0.94826088  0.73559751     0.80100
C994        C  0.91915931  0.86094599  0.67693719     0.80500
C995        C  0.64074713  0.55920478  0.67697341     0.81600
C996        C  0.94271039  0.58253795  0.67700901     0.80700
C997        C  0.83430943  0.66682247  0.20782226     0.49000
H998        H  0.83433678  0.66675847  0.22205214     0.00000
C999        C  0.83421870  0.66696741  0.17477867     0.49000
H1000       H  0.83417402  0.66704859  0.16062765     0.00000
C1001       C  0.76700806  0.63925193  0.20044668    -0.13700
C1002       C  0.87415458  0.73409859  0.20046212    -0.13500
C1003       C  0.86169342  0.62727291  0.20042563    -0.13900
C1004       C  0.76278016  0.63591564  0.18306981    -0.13800
C1005       C  0.87482807  0.73834312  0.18308518    -0.13400
C1006       C  0.86506173  0.62656737  0.18304991    -0.13700
C1007       C  0.50016146  0.50039609  0.13740470     0.49000
H1008       H  0.50008448  0.50037224  0.12317610     0.00000
C1009       C  0.00036452  0.50045176  0.17044989     0.49000
H1010       H  0.00046032  0.50046147  0.18460187     0.00000
C1011       C  0.97171912  0.93308740  0.14478784    -0.13700
C1012       C  0.56764437  0.53950119  0.14476183    -0.13500
C1013       C  0.96129238  0.52861518  0.14478323    -0.13900
C1014       C  0.96878823  0.92901162  0.16217328    -0.13800
C1015       C  0.57185600  0.54055109  0.16214577    -0.13400
C1016       C  0.96037636  0.53174898  0.16216653    -0.13700
Zn1017     Zn  0.57951163  0.77746034  0.96414451     1.49700
Zn1018     Zn  0.72381072  0.80217551  0.96417410     1.49400
Zn1019     Zn  0.69972571  0.92177283  0.96412758     1.49100
Zn1020     Zn  0.66776588  0.83373273  0.99656728     1.49500
O1021       O  0.66770134  0.83378952  0.97194048    -1.80600
O1022       O  0.57339486  0.70754670  0.94880973    -0.71200
O1023       O  0.79386755  0.86627787  0.94880642    -0.71100
O1024       O  0.63586579  0.92739149  0.94867683    -0.70600
O1025       O  0.67615420  0.73072771  0.94724498    -0.71200
O1026       O  0.55558420  0.82472461  0.94717177    -0.70800
O1027       O  0.77148839  0.94613045  0.94726002    -0.71400
O1028       O  0.69539838  0.91732514  0.00651727    -0.70800
O1029       O  0.75864685  0.77534710  0.98420571    -0.71600
O1030       O  0.72618941  0.98349975  0.98414799    -0.71000
O1031       O  0.72375296  0.80630424  0.00657793    -0.71400
O1032       O  0.58396078  0.77760952  0.00654655    -0.71300
O1033       O  0.51764583  0.74262356  0.98418178    -0.71100
C1034       C  0.61798696  0.70116528  0.94186960     0.80700
C1035       C  0.80072092  0.91748488  0.94188050     0.81100
C1036       C  0.58450218  0.88277678  0.94176124     0.80100
C1037       C  0.72002469  0.97333267  0.00021541     0.80500
C1038       C  0.75473809  0.78144752  0.00027495     0.81600
C1039       C  0.52781225  0.74659033  0.00025060     0.80700
Zn1040     Zn  0.80752335  0.72729678  0.04797018     1.49700
Zn1041     Zn  0.83382417  0.66724948  0.01561592     1.49400
Zn1042     Zn  0.92083383  0.69369336  0.04798227     1.49100
Zn1043     Zn  0.77325206  0.58009266  0.04794100     1.49500
O1044       O  0.83387277  0.66709292  0.04014941    -1.80600
O1045       O  0.77989862  0.76225752  0.02807795    -0.71200
O1046       O  0.91792467  0.69771257  0.00572641    -0.71100
O1047       O  0.94683308  0.76358923  0.06544950    -0.70600
O1048       O  0.80364106  0.72086803  0.00572163    -0.71200
O1049       O  0.87523956  0.79691814  0.06278551    -0.70800
O1050       O  0.98349410  0.72143444  0.02806522    -0.71400
O1051       O  0.81723408  0.55452366  0.06545154    -0.70800
O1052       O  0.78007002  0.58320782  0.00568886    -0.71600
O1053       O  0.92269712  0.62609327  0.06275230    -0.71000
O1054       O  0.73877083  0.51751001  0.02802269    -0.71400
O1055       O  0.70324396  0.57759512  0.06261878    -0.71300
O1056       O  0.73742381  0.68282164  0.06538238    -0.71100
C1057       C  0.78207378  0.75479473  0.01200845     0.80700
C1058       C  0.97368350  0.71927394  0.01199807     0.81100
C1059       C  0.92287093  0.79780678  0.07033412     0.80100
C1060       C  0.87568604  0.57850164  0.07031508     0.80500
C1061       C  0.74632031  0.52738358  0.01195807     0.81600
C1062       C  0.70271183  0.62436235  0.07020332     0.80700
C1063       C  0.94277385  0.82955621  0.08651362    -0.15000
C1064       C  0.94784956  0.84322951  0.10143890     0.09100
C1065       C  0.94875402  0.85730199  0.11894130     0.10900
C1066       C  0.95366942  0.88118967  0.13277179    -0.15800
C1067       C  0.92760793  0.54676393  0.13275611    -0.15000
C1068       C  0.90886765  0.55194509  0.11891201     0.09100
C1069       C  0.89598836  0.55323619  0.10139996     0.10900
C1070       C  0.88755291  0.55857243  0.08647725    -0.15800
C1071       C  0.67083973  0.61228191  0.08636375    -0.15000
C1072       C  0.65726864  0.60398197  0.10129904     0.09100
C1073       C  0.64342047  0.59146991  0.11883470     0.10900
C1074       C  0.61963072  0.57303371  0.13271152    -0.15800
C1075       C  0.89713465  0.59250734  0.17486498    -0.09700
C1076       C  0.92618499  0.56367796  0.17036092    -0.11300
C1077       C  0.93720937  0.86275217  0.17039163    -0.09700
C1078       C  0.90864959  0.80471616  0.17491448    -0.11300
C1079       C  0.63827002  0.57481980  0.17034293    -0.09700
C1080       C  0.69637239  0.60388654  0.17487819    -0.11300
C1081       C  0.76667829  0.50256180  0.59019374    -0.15000
C1082       C  0.76017483  0.98969229  0.57519410     0.09100
C1083       C  0.75156997  0.97681671  0.55751474     0.10900
C1084       C  0.73669680  0.95360840  0.54345312    -0.15800
C1085       C  0.99957029  0.76507369  0.59016254    -0.15000
C1086       C  0.51236898  0.77121017  0.57515806     0.09100
C1087       C  0.52516454  0.77508220  0.55748064     0.10900
C1088       C  0.54834799  0.78310072  0.54342567    -0.15800
C1089       C  0.71864350  0.76542171  0.54338007    -0.15000
C1090       C  0.72679968  0.75016729  0.55740622     0.09100
C1091       C  0.73095140  0.74110096  0.57506311     0.10900
C1092       C  0.73729711  0.73437274  0.59005085    -0.15800
C1093       C  0.77156594  0.53005553  0.50100734    -0.09700
C1094       C  0.74206711  0.97208780  0.50564655    -0.11300
C1095       C  0.52996334  0.77063162  0.50561519    -0.09700
C1096       C  0.97195352  0.74259154  0.50097211    -0.11300
C1097       C  0.73133536  0.76005911  0.50560216    -0.09700
C1098       C  0.75940149  0.73032327  0.50099542    -0.11300
C1099       C  0.88181506  0.95023693  0.87907900    -0.15000
C1100       C  0.85894658  0.94391978  0.89312621     0.09100
C1101       C  0.84621070  0.94203177  0.91076917     0.10900
C1102       C  0.83304340  0.93673816  0.92574255    -0.15800
C1103       C  0.55140486  0.93145232  0.87901247    -0.15000
C1104       C  0.55784352  0.91481874  0.89303598     0.09100
C1105       C  0.55990029  0.90379454  0.91066351     0.10900
C1106       C  0.56528349  0.89580949  0.92562504    -0.15800
C1107       C  0.57047712  0.62005596  0.87905299    -0.15000
C1108       C  0.58671789  0.64303522  0.89310266     0.09100
C1109       C  0.59720354  0.65582625  0.91075229     0.10900
C1110       C  0.60487937  0.66895962  0.92572780    -0.15800
C1111       C  0.78699800  0.90311759  0.79855938    -0.15000
C1112       C  0.81011642  0.91865320  0.78449575     0.09100
C1113       C  0.82297555  0.92800896  0.76681783     0.10900
C1114       C  0.83591105  0.93492195  0.75181828    -0.15800
C1115       C  0.56573915  0.90151575  0.75187551    -0.15000
C1116       C  0.57283719  0.89536908  0.76685798     0.09100
C1117       C  0.58256872  0.89185029  0.78451548     0.10900
C1118       C  0.59837131  0.88441802  0.79855612    -0.15800
C1119       C  0.61681807  0.71460960  0.79859099    -0.15000
C1120       C  0.60963540  0.69139115  0.78456069     0.09100
C1121       C  0.60647478  0.67829927  0.76690542     0.10900
C1122       C  0.60055714  0.66523054  0.75191536    -0.15800
C1123       C  0.56604599  0.92796912  0.84116385    -0.09700
C1124       C  0.59477610  0.89903979  0.83641979    -0.11300
C1125       C  0.86322939  0.93559580  0.84120996    -0.09700
C1126       C  0.80534816  0.90687655  0.83643981    -0.11300
C1127       C  0.57380583  0.63847988  0.84120397    -0.09700
C1128       C  0.60249331  0.69631607  0.83645284    -0.11300
C1129       C  0.94960791  0.83765008  0.25871724    -0.15000
C1130       C  0.94127794  0.82347442  0.24382961     0.09100
C1131       C  0.92821140  0.80944892  0.22632994     0.08500
C1132       C  0.90888323  0.78581355  0.21248691    -0.15800
C1133       C  0.88898150  0.55209853  0.25868370    -0.15000
C1134       C  0.88321927  0.56021129  0.24378003     0.09100
C1135       C  0.88254512  0.57314515  0.22626872     0.10900
C1136       C  0.87848949  0.59249935  0.21242007    -0.15800
C1137       C  0.66542211  0.61414221  0.25873009    -0.15000
C1138       C  0.67905615  0.61945274  0.24381395     0.09100
C1139       C  0.69226960  0.61939144  0.22630249     0.10900
C1140       C  0.71542627  0.62283649  0.21245045    -0.15800
C1141       C  0.79398806  0.54921442  0.46350095    -0.15000
C1142       C  0.79240976  0.52437674  0.45001710     0.09100
C1143       C  0.79378489  0.50809334  0.43279226     0.10900
C1144       C  0.78896201  0.99295657  0.41798224    -0.15800
C1145       C  0.50954783  0.79670591  0.41789371    -0.15000
C1146       C  0.99432380  0.78644962  0.43270322     0.09100
C1147       C  0.97787941  0.76911909  0.44994836     0.10900
C1148       C  0.95285011  0.74620792  0.46346136    -0.15800
C1149       C  0.75563911  0.70778942  0.46351671    -0.15000
C1150       C  0.73253893  0.70990075  0.45004360     0.09100
C1151       C  0.71498212  0.70915479  0.43282722     0.10900
C1152       C  0.70471463  0.71432467  0.41803266    -0.15800
loop_ 
_geom_bond_atom_site_label_1 
_geom_bond_atom_site_label_2 
_geom_bond_distance 
_geom_bond_site_symmetry_2 
_ccdc_geom_bond_type 
Zn1           O5   1.932       .  S
Zn1           O6   2.026       .  S
Zn1          O10   2.007       .  S
Zn1          O17   1.999       .  S
Zn2           O5   1.915       .  S
Zn2           O7   1.925       .  S
Zn2           O9   1.925       .  S
Zn2          O13   1.926       .  S
Zn3           O5   1.931       .  S
Zn3           O8   1.999       .  S
Zn3          O11   2.026       .  S
Zn3          O14   2.007       .  S
Zn4           O5   1.931       .  S
Zn4          O12   1.999       .  S
Zn4          O15   2.027       .  S
Zn4          O16   2.007       .  S
O6           C18   1.277       .  A
O7           C19   1.260       .  A
O8           C20   1.269       .  A
O9           C18   1.260       .  A
O10          C20   1.272       .  A
O11          C19   1.277       .  A
O12          C21   1.269       .  A
O13          C22   1.260       .  A
O14          C21   1.272       .  A
O15          C22   1.277       .  A
O16          C23   1.272       .  A
O17          C23   1.269       .  A
C18          C46   1.446       .  S
C19          C44   1.446       .  S
C20         C288   1.431       .  S
C21         C281   1.431       .  S
C22          C45   1.446       .  S
C23         C280   1.431       .  S
Zn24        O604   1.934       .  S
Zn24         O29   2.002       .  S
Zn24         O40   2.015       .  S
Zn24        O321   1.996       .  S
Zn25         O28   1.933       .  S
Zn25         O36   2.016       .  S
Zn25        O318   2.001       .  S
Zn25        O608   1.997       .  S
Zn26        O316   1.934       .  S
Zn26         O34   1.997       .  S
Zn26         O37   2.015       .  S
Zn26        O607   2.001   1_455  S
Zn27         O28   1.932       .  S
Zn27         O38   1.938       .  S
Zn27        O323   1.938       .  S
Zn27        O615   1.937   1_455  S
O28        Zn600   1.934   1_455  S
O28        Zn314   1.934       .  S
O29          C41   1.270       .  A
O30        Zn313   2.001   1_545  S
O30          C42   1.270       .  A
O31        Zn602   2.001       .  S
O31          C43   1.270       .  A
O32        Zn601   1.997       .  S
O32          C41   1.269       .  A
O33        Zn312   1.996       .  S
O33          C43   1.268   1_565  A
O34          C42   1.268       .  A
O35        Zn315   1.938       .  S
O35          C44   1.261       .  A
O36          C45   1.277       .  A
O37          C44   1.277       .  A
O38          C45   1.261       .  A
O39        Zn603   1.937       .  S
O39          C46   1.261       .  A
O40          C46   1.277       .  A
C41         C265   1.430       .  S
C42         C273   1.429       .  S
C43         C269   1.429       .  S
C47          H48   1.116       .  S
C47          C53   1.509       .  S
C47          C52   1.509       .  S
C47          C51   1.510       .  S
C49          H50   1.110       .  S
C49          C55   1.615       .  S
C49          C54   1.614       .  S
C49          C56   1.614       .  S
C51          C54   1.368       .  D
C51         C247   1.441       .  S
C52          C55   1.368       .  D
C52         C254   1.441       .  S
C53          C56   1.368       .  D
C53         C255   1.441       .  S
C54         C262   1.513       .  S
C55         C260   1.514       .  S
C56         C264   1.513       .  S
C57          H58   1.110       .  S
C57          C62   1.614       .  S
C57         C639   1.615       .  S
C57         C925   1.614       .  S
C59         H636   1.116       .  S
C59         C353   1.509   1_545  S
C59         C640   1.509       .  S
C59         C930   1.509   1_545  S
H60         C635   1.116       .  S
C61         C921   1.614       .  S
C61          C64   1.368       .  D
C61         C263   1.513       .  S
C62          C65   1.368       .  D
C62         C261   1.513       .  S
C63         C633   1.615       .  S
C63          C66   1.368       .  D
C63         C259   1.514       .  S
C64         C635   1.509       .  S
C64         C243   1.440       .  S
C65         C347   1.509       .  S
C65         C235   1.440       .  S
C66         C923   1.509       .  S
C66         C239   1.440       .  S
C67          H68   1.116       .  S
C67          C73   1.509       .  S
C67          C72   1.509       .  S
C67          C71   1.509       .  S
C69          H70   1.110       .  S
C69          C75   1.615       .  S
C69          C74   1.615       .  S
C69          C76   1.615       .  S
C71          C74   1.368       .  D
C71         C220   1.440       .  S
C72          C75   1.367       .  D
C72         C225   1.440       .  S
C73          C76   1.368       .  D
C73         C224   1.440       .  S
C74         C230   1.513       .  S
C75         C233   1.514       .  S
C76         C231   1.513       .  S
C77          H78   1.116       .  S
C77          C83   1.512       .  S
C77          C82   1.512       .  S
C77          C81   1.512       .  S
C79          H80   1.110       .  S
C79          C85   1.612       .  S
C79          C84   1.613       .  S
C79          C86   1.613       .  S
C81          C84   1.367       .  D
C81         C277   1.440       .  S
C82          C85   1.367       .  D
C82         C284   1.440       .  S
C83          C86   1.367       .  D
C83         C285   1.440       .  S
C84         C229   1.513       .  S
C85         C232   1.513       .  S
C86         C234   1.514       .  S
Zn87         O91   1.931       .  S
Zn87         O92   1.911       .  S
Zn87         O96   1.912       .  S
Zn87        O103   1.911       .  S
Zn88         O91   1.939       .  S
Zn88         O93   2.003       .  S
Zn88         O95   2.033       .  S
Zn88         O99   2.004       .  S
Zn89         O91   1.938       .  S
Zn89         O94   2.032       .  S
Zn89         O97   2.004       .  S
Zn89        O100   2.003       .  S
Zn90         O91   1.939       .  S
Zn90         O98   2.005       .  S
Zn90        O101   2.003       .  S
Zn90        O102   2.033       .  S
O92         C104   1.257       .  A
O93         C105   1.270       .  A
O94         C106   1.279       .  A
O95         C104   1.279       .  A
O96         C106   1.257       .  A
O97         C105   1.270       .  A
O98         C107   1.271       .  A
O99         C108   1.270       .  A
O100        C107   1.270       .  A
O101        C108   1.270       .  A
O102        C109   1.279       .  A
O103        C109   1.257       .  A
C104        C130   1.446       .  S
C105        C221   1.433       .  S
C106        C132   1.446       .  S
C107        C217   1.433       .  S
C108        C228   1.433       .  S
C109        C131   1.446       .  S
Zn110       O690   1.938       .  S
Zn110       O126   2.034       .  S
Zn110       O691   2.007       .  S
Zn110       O407   2.002       .  S
Zn111       O114   1.938       .  S
Zn111       O118   2.003       .  S
Zn111       O122   2.033       .  S
Zn111       O404   2.008   1_545  S
Zn112       O978   1.938       .  S
Zn112       O117   2.008       .  S
Zn112       O123   2.033       .  S
Zn112       O696   2.002       .  S
Zn113       O114   1.930       .  S
Zn113       O124   1.911       .  S
Zn113       O985   1.911   1_445  S
Zn113       O701   1.911   1_455  S
O114       Zn686   1.938   1_455  S
O114       Zn976   1.938   1_445  S
O115       Zn686   2.007   1_455  S
O115        C127   1.271       .  A
O116       Zn399   2.008       .  S
O116        C128   1.271       .  A
O117        C129   1.271       .  A
O118        C127   1.270       .  A
O119       Zn398   2.002       .  S
O119        C129   1.270       .  A
O120       Zn688   2.002       .  S
O120        C128   1.270   1_655  A
O121       Zn977   1.911       .  S
O121        C130   1.257       .  A
O122        C131   1.279       .  A
O123        C130   1.279       .  A
O124        C131   1.257       .  A
O125       Zn689   1.911       .  S
O125        C132   1.257       .  A
O126        C132   1.279       .  A
C127        C258   1.433       .  S
C128        C251   1.434       .  S
C129        C250   1.433       .  S
C133        H134   1.116       .  S
C133        C139   1.509       .  S
C133        C138   1.509       .  S
C133        C137   1.509       .  S
C135        H136   1.110       .  S
C135        C141   1.613       .  S
C135        C140   1.613       .  S
C135        C142   1.614       .  S
C137        C140   1.366       .  D
C137        C276   1.438       .  S
C138        C141   1.366       .  D
C138        C268   1.439       .  S
C139        C142   1.366       .  D
C139        C272   1.438       .  S
C140        C216   1.511       .  S
C141        C214   1.511       .  S
C142        C211   1.512       .  S
C143        H144   1.116       .  S
C143        C148   1.509       .  S
C143        C725   1.509   1_455  S
C143       C1011   1.509   1_445  S
C145        H146   1.110       .  S
C145        C152   1.614       .  S
C145        C727   1.613       .  S
C145        C438   1.613   1_545  S
C147       C1007   1.509       .  S
C147        C150   1.367       .  D
C147        C202   1.439       .  S
C148        C151   1.367       .  D
C148        C210   1.439       .  S
C149        C719   1.509       .  S
C149        C152   1.367       .  D
C149        C203   1.439       .  S
C150        C433   1.613       .  S
C150        C213   1.511       .  S
C151        C721   1.613       .  S
C151        C215   1.511       .  S
C152        C212   1.512       .  S
Zn153       O157   1.937       .  S
Zn153       O158   2.003       .  S
Zn153       O162   2.004       .  S
Zn153       O169   2.026       .  S
Zn154       O157   1.936       .  S
Zn154       O159   2.002       .  S
Zn154       O161   2.003       .  S
Zn154       O165   2.025       .  S
Zn155       O157   1.937       .  S
Zn155       O160   2.002       .  S
Zn155       O163   2.004       .  S
Zn155       O166   2.025       .  S
Zn156       O157   1.932       .  S
Zn156       O164   1.924   1_556  S
Zn156       O167   1.925   1_556  S
Zn156       O168   1.924   1_556  S
O158        C170   1.270       .  A
O159        C171   1.270       .  A
O160        C172   1.270       .  A
O161        C170   1.270       .  A
O162        C172   1.270       .  A
O163        C171   1.270       .  A
O164        C173   1.259       .  A
O165        C174   1.278   1_556  A
O166        C173   1.278   1_556  A
O167        C174   1.259       .  A
O168        C175   1.259       .  A
O169        C175   1.278   1_556  A
C170        C246   1.432       .  S
C171        C238   1.432       .  S
C172        C242   1.432       .  S
C173        C485   1.446       .  S
C174        C193   1.447       .  S
C175        C770   1.447   1_455  S
Zn176       O180   1.936       .  S
Zn176       O181   2.029       .  S
Zn176       O185   2.004       .  S
Zn176       O192   2.000       .  S
Zn177       O180   1.925       .  S
Zn177       O182   1.919       .  S
Zn177       O184   1.919       .  S
Zn177       O188   1.919       .  S
Zn178       O180   1.937       .  S
Zn178       O183   2.001       .  S
Zn178       O186   2.029       .  S
Zn178       O189   2.004       .  S
Zn179       O180   1.936       .  S
Zn179       O187   2.000       .  S
Zn179       O190   2.028       .  S
Zn179       O191   2.004       .  S
O181        C193   1.278       .  A
O182        C194   1.258       .  A
O183        C195   1.269       .  A
O184        C193   1.258       .  A
O185        C195   1.271       .  A
O186        C194   1.278       .  A
O187        C196   1.269       .  A
O188        C197   1.258       .  A
O189        C196   1.271       .  A
O190        C197   1.278       .  A
O191        C198   1.271       .  A
O192        C198   1.269       .  A
C194        C751   1.447       .  S
C195        C199   1.431       .  S
C196        C206   1.431       .  S
C197        C461   1.446   1_545  S
C198        C207   1.431       .  S
C199        C200   1.205       .  T
C200        C201   1.411       .  S
C201        C202   1.204       .  T
C203        C204   1.204       .  T
C204        C205   1.411       .  S
C205        C206   1.205       .  T
C207        C208   1.205       .  T
C208        C209   1.411       .  S
C209        C210   1.204       .  T
C211        C212   1.249       .  T
C213        C214   1.248       .  T
C215        C216   1.248       .  T
C217        C506   1.206   1_545  T
C218        C505   1.206       .  T
C218        C219   1.413       .  S
C219        C220   1.205       .  T
C221        C798   1.206       .  T
C222        C797   1.206   1_455  T
C222        C223   1.413       .  S
C223        C224   1.205       .  T
C225        C226   1.205       .  T
C226        C227   1.413       .  S
C227        C228   1.206       .  T
C229        C518   1.249   1_545  T
C230        C517   1.249       .  T
C231        C808   1.249   1_455  T
C232        C807   1.249       .  T
C233        C234   1.249       .  T
C235        C236   1.205       .  T
C236        C237   1.413       .  S
C237        C238   1.206       .  T
C239        C240   1.205       .  T
C240        C241   1.413       .  S
C241        C242   1.206       .  T
C243        C244   1.205       .  T
C244        C245   1.413       .  S
C245        C246   1.206       .  T
C247        C248   1.205       .  T
C248        C249   1.414       .  S
C249        C250   1.207       .  T
C251        C252   1.207       .  T
C252        C253   1.414       .  S
C253        C254   1.205       .  T
C255        C256   1.205       .  T
C256        C257   1.414       .  S
C257        C258   1.207       .  T
C259        C260   1.250       .  T
C261        C262   1.249       .  T
C263        C264   1.249       .  T
C265        C266   1.204       .  T
C266        C267   1.410       .  S
C267        C268   1.203       .  T
C269        C270   1.204       .  T
C270        C271   1.410       .  S
C271        C272   1.203       .  T
C273        C274   1.204       .  T
C274        C275   1.410       .  S
C275        C276   1.203       .  T
C277        C278   1.204       .  T
C278        C279   1.411       .  S
C279        C568   1.205   1_545  T
C280        C567   1.205       .  T
C281        C858   1.205   1_455  T
C282        C857   1.205       .  T
C282        C283   1.411       .  S
C283        C284   1.204       .  T
C285        C286   1.204       .  T
C286        C287   1.411       .  S
C287        C288   1.205       .  T
Zn289       O293   1.932       .  S
Zn289       O294   2.026       .  S
Zn289       O298   2.007       .  S
Zn289       O305   1.999       .  S
Zn290       O293   1.915       .  S
Zn290       O295   1.925       .  S
Zn290       O297   1.925       .  S
Zn290       O301   1.926       .  S
Zn291       O293   1.931       .  S
Zn291       O296   1.999       .  S
Zn291       O299   2.026       .  S
Zn291       O302   2.007       .  S
Zn292       O293   1.931       .  S
Zn292       O300   1.999       .  S
Zn292       O303   2.027       .  S
Zn292       O304   2.007       .  S
O294        C306   1.277       .  A
O295        C307   1.260       .  A
O296        C308   1.269       .  A
O297        C306   1.260       .  A
O298        C308   1.272       .  A
O299        C307   1.277       .  A
O300        C309   1.269       .  A
O301        C310   1.260       .  A
O302        C309   1.272       .  A
O303        C310   1.277       .  A
O304        C311   1.272       .  A
O305        C311   1.269       .  A
C306        C334   1.446       .  S
C307        C332   1.446       .  S
C308        C576   1.431       .  S
C309        C569   1.431       .  S
C310        C333   1.446       .  S
C311        C568   1.431       .  S
Zn312       O892   1.934   1_565  S
Zn312       O317   2.002       .  S
Zn312       O328   2.015       .  S
Zn313       O316   1.933   1_565  S
Zn313       O896   1.997       .  S
Zn313       O324   2.016       .  S
Zn314       O895   2.001   1_455  S
Zn314       O322   1.997       .  S
Zn314       O325   2.015       .  S
Zn315       O316   1.932       .  S
Zn315       O326   1.938   1_545  S
Zn315       O903   1.937   1_445  S
O316       Zn888   1.934   1_445  S
O317        C329   1.270       .  A
O318        C330   1.270       .  A
O319       Zn890   2.001       .  S
O319        C331   1.270       .  A
O320       Zn889   1.997       .  S
O320        C329   1.269       .  A
O321        C331   1.268       .  A
O322        C330   1.268       .  A
O323        C332   1.261       .  A
O324        C333   1.277       .  A
O325        C332   1.277       .  A
O326        C333   1.261       .  A
O327       Zn891   1.937   1_565  S
O327        C334   1.261       .  A
O328        C334   1.277       .  A
C329        C553   1.430       .  S
C330        C561   1.429       .  S
C331        C557   1.429       .  S
C335        H336   1.116       .  S
C335        C341   1.509       .  S
C335        C340   1.509       .  S
C335        C339   1.510       .  S
C337        H338   1.110       .  S
C337        C343   1.615       .  S
C337        C342   1.614       .  S
C337        C344   1.614       .  S
C339        C342   1.368       .  D
C339        C535   1.441       .  S
C340        C343   1.368       .  D
C340        C542   1.441       .  S
C341        C344   1.368       .  D
C341        C543   1.441       .  S
C342        C550   1.513       .  S
C343        C548   1.514       .  S
C344        C552   1.513       .  S
C345        H346   1.110       .  S
C345        C927   1.615   1_545  S
C345        C350   1.614   1_545  S
C345        C637   1.614       .  S
C347        H924   1.116       .  S
C347        C928   1.509       .  S
C347        C642   1.509       .  S
H348        C923   1.116       .  S
C349        C633   1.614       .  S
C349        C352   1.368       .  D
C349        C551   1.513       .  S
C350        C353   1.368       .  D
C350        C549   1.513       .  S
C351        C921   1.615   1_565  S
C351        C354   1.368       .  D
C351        C547   1.514       .  S
C352        C923   1.509       .  S
C352        C531   1.440       .  S
C353        C523   1.440       .  S
C354        C635   1.509   1_565  S
C354        C527   1.440       .  S
C355        H356   1.116       .  S
C355        C361   1.509       .  S
C355        C360   1.509       .  S
C355        C359   1.509       .  S
C357        H358   1.110       .  S
C357        C363   1.615       .  S
C357        C362   1.615       .  S
C357        C364   1.615       .  S
C359        C362   1.368       .  D
C359        C508   1.440       .  S
C360        C363   1.367       .  D
C360        C513   1.440       .  S
C361        C364   1.368       .  D
C361        C512   1.440       .  S
C362        C518   1.513       .  S
C363        C521   1.514       .  S
C364        C519   1.513       .  S
C365        H366   1.116       .  S
C365        C371   1.512       .  S
C365        C370   1.512       .  S
C365        C369   1.512       .  S
C367        H368   1.110       .  S
C367        C373   1.612       .  S
C367        C372   1.613       .  S
C367        C374   1.613       .  S
C369        C372   1.367       .  D
C369        C565   1.440       .  S
C370        C373   1.367       .  D
C370        C572   1.440       .  S
C371        C374   1.367       .  D
C371        C573   1.440       .  S
C372        C517   1.513       .  S
C373        C520   1.513       .  S
C374        C522   1.514       .  S
Zn375       O379   1.931       .  S
Zn375       O380   1.911       .  S
Zn375       O384   1.912       .  S
Zn375       O391   1.911       .  S
Zn376       O379   1.939       .  S
Zn376       O381   2.003       .  S
Zn376       O383   2.033       .  S
Zn376       O387   2.004       .  S
Zn377       O379   1.938       .  S
Zn377       O382   2.032       .  S
Zn377       O385   2.004       .  S
Zn377       O388   2.003       .  S
Zn378       O379   1.939       .  S
Zn378       O386   2.005       .  S
Zn378       O389   2.003       .  S
Zn378       O390   2.033       .  S
O380        C392   1.257       .  A
O381        C393   1.270       .  A
O382        C394   1.279       .  A
O383        C392   1.279       .  A
O384        C394   1.257       .  A
O385        C393   1.270       .  A
O386        C395   1.271       .  A
O387        C396   1.270       .  A
O388        C395   1.270       .  A
O389        C396   1.270       .  A
O390        C397   1.279       .  A
O391        C397   1.257       .  A
C392        C418   1.446       .  S
C393        C509   1.433       .  S
C394        C420   1.446       .  S
C395        C505   1.433       .  S
C396        C516   1.433       .  S
C397        C419   1.446       .  S
Zn398       O978   1.938       .  S
Zn398       O979   2.007       .  S
Zn398       O414   2.034       .  S
Zn399       O402   1.938       .  S
Zn399       O406   2.003       .  S
Zn399       O410   2.033       .  S
Zn400       O690   1.938   1_565  S
Zn400       O405   2.008       .  S
Zn400       O984   2.002       .  S
Zn400       O411   2.033       .  S
Zn401       O402   1.930       .  S
Zn401       O697   1.911   1_455  S
Zn401       O412   1.911       .  S
Zn401       O989   1.911   1_455  S
O402       Zn974   1.938   1_455  S
O402       Zn688   1.938   1_455  S
O403       Zn974   2.007   1_455  S
O403        C415   1.271       .  A
O404        C416   1.271       .  A
O405        C417   1.271       .  A
O406        C415   1.270       .  A
O407        C417   1.270   1_545  A
O408       Zn976   2.002       .  S
O408        C416   1.270   1_655  A
O409       Zn689   1.911   1_565  S
O409        C418   1.257       .  A
O410        C419   1.279       .  A
O411        C418   1.279       .  A
O412        C419   1.257       .  A
O413       Zn977   1.911       .  S
O413        C420   1.257       .  A
O414        C420   1.279       .  A
C415        C546   1.433       .  S
C416        C539   1.434       .  S
C417        C538   1.433       .  S
C421        H422   1.116       .  S
C421        C427   1.509       .  S
C421        C426   1.509       .  S
C421        C425   1.509       .  S
C423        H424   1.110       .  S
C423        C429   1.613       .  S
C423        C428   1.613       .  S
C423        C430   1.614       .  S
C425        C428   1.366       .  D
C425        C564   1.438       .  S
C426        C429   1.366       .  D
C426        C556   1.439       .  S
C427        C430   1.366       .  D
C427        C560   1.438       .  S
C428        C504   1.511       .  S
C429        C502   1.511       .  S
C430        C499   1.512       .  S
C431        H432   1.116       .  S
C431       C1013   1.509   1_455  S
C431        C436   1.509       .  S
C431        C723   1.509   1_455  S
C433        H434   1.110       .  S
C433       C1015   1.613       .  S
C433        C440   1.614       .  S
C435        C719   1.509   1_565  S
C435        C438   1.367       .  D
C435        C490   1.439       .  S
C436        C439   1.367       .  D
C436        C498   1.439       .  S
C437       C1007   1.509       .  S
C437        C440   1.367       .  D
C437        C491   1.439       .  S
C438        C501   1.511       .  S
C439       C1009   1.613       .  S
C439        C503   1.511       .  S
C440        C500   1.512       .  S
Zn441       O445   1.937       .  S
Zn441       O446   2.003       .  S
Zn441       O450   2.004       .  S
Zn441       O457   2.026       .  S
Zn442       O445   1.936       .  S
Zn442       O447   2.002       .  S
Zn442       O449   2.003       .  S
Zn442       O453   2.025       .  S
Zn443       O445   1.937       .  S
Zn443       O448   2.002       .  S
Zn443       O451   2.004       .  S
Zn443       O454   2.025       .  S
Zn444       O445   1.932       .  S
Zn444       O452   1.924   1_556  S
Zn444       O455   1.925   1_556  S
Zn444       O456   1.924   1_556  S
O446        C458   1.270       .  A
O447        C459   1.270       .  A
O448        C460   1.270       .  A
O449        C458   1.270       .  A
O450        C460   1.270       .  A
O451        C459   1.270       .  A
O452        C461   1.259       .  A
O453        C462   1.278   1_556  A
O454        C461   1.278   1_556  A
O455        C462   1.259       .  A
O456        C463   1.259       .  A
O457        C463   1.278   1_556  A
C458        C534   1.432       .  S
C459        C526   1.432       .  S
C460        C530   1.432       .  S
C462        C481   1.447       .  S
C463       C1058   1.447   1_455  S
Zn464       O468   1.936       .  S
Zn464       O469   2.029       .  S
Zn464       O473   2.004       .  S
Zn464       O480   2.000       .  S
Zn465       O468   1.925       .  S
Zn465       O470   1.919       .  S
Zn465       O472   1.919       .  S
Zn465       O476   1.919       .  S
Zn466       O468   1.937       .  S
Zn466       O471   2.001       .  S
Zn466       O474   2.029       .  S
Zn466       O477   2.004       .  S
Zn467       O468   1.936       .  S
Zn467       O475   2.000       .  S
Zn467       O478   2.028       .  S
Zn467       O479   2.004       .  S
O469        C481   1.278       .  A
O470        C482   1.258       .  A
O471        C483   1.269       .  A
O472        C481   1.258       .  A
O473        C483   1.271       .  A
O474        C482   1.278       .  A
O475        C484   1.269       .  A
O476        C485   1.258       .  A
O477        C484   1.271       .  A
O478        C485   1.278       .  A
O479        C486   1.271       .  A
O480        C486   1.269       .  A
C482       C1039   1.447       .  S
C483        C487   1.431       .  S
C484        C494   1.431       .  S
C486        C495   1.431       .  S
C487        C488   1.205       .  T
C488        C489   1.411       .  S
C489        C490   1.204       .  T
C491        C492   1.204       .  T
C492        C493   1.411       .  S
C493        C494   1.205       .  T
C495        C496   1.205       .  T
C496        C497   1.411       .  S
C497        C498   1.204       .  T
C499        C500   1.249       .  T
C501        C502   1.248       .  T
C503        C504   1.248       .  T
C506        C507   1.413       .  S
C507        C508   1.205       .  T
C509       C1086   1.206       .  T
C510       C1085   1.206   1_455  T
C510        C511   1.413       .  S
C511        C512   1.205       .  T
C513        C514   1.205       .  T
C514        C515   1.413       .  S
C515        C516   1.206       .  T
C519       C1096   1.249   1_455  T
C520       C1095   1.249       .  T
C521        C522   1.249       .  T
C523        C524   1.205       .  T
C524        C525   1.413       .  S
C525        C526   1.206       .  T
C527        C528   1.205       .  T
C528        C529   1.413       .  S
C529        C530   1.206       .  T
C531        C532   1.205       .  T
C532        C533   1.413       .  S
C533        C534   1.206       .  T
C535        C536   1.205       .  T
C536        C537   1.414       .  S
C537        C538   1.207       .  T
C539        C540   1.207       .  T
C540        C541   1.414       .  S
C541        C542   1.205       .  T
C543        C544   1.205       .  T
C544        C545   1.414       .  S
C545        C546   1.207       .  T
C547        C548   1.250       .  T
C549        C550   1.249       .  T
C551        C552   1.249       .  T
C553        C554   1.204       .  T
C554        C555   1.410       .  S
C555        C556   1.203       .  T
C557        C558   1.204       .  T
C558        C559   1.410       .  S
C559        C560   1.203       .  T
C561        C562   1.204       .  T
C562        C563   1.410       .  S
C563        C564   1.203       .  T
C565        C566   1.204       .  T
C566        C567   1.411       .  S
C569       C1146   1.205   1_455  T
C570       C1145   1.205       .  T
C570        C571   1.411       .  S
C571        C572   1.204       .  T
C573        C574   1.204       .  T
C574        C575   1.411       .  S
C575        C576   1.205       .  T
Zn577       O581   1.932       .  S
Zn577       O582   2.026       .  S
Zn577       O586   2.007       .  S
Zn577       O593   1.999       .  S
Zn578       O581   1.915       .  S
Zn578       O583   1.925       .  S
Zn578       O585   1.925       .  S
Zn578       O589   1.926       .  S
Zn579       O581   1.931       .  S
Zn579       O584   1.999       .  S
Zn579       O587   2.026       .  S
Zn579       O590   2.007       .  S
Zn580       O581   1.931       .  S
Zn580       O588   1.999       .  S
Zn580       O591   2.027       .  S
Zn580       O592   2.007       .  S
O582        C594   1.277       .  A
O583        C595   1.260       .  A
O584        C596   1.269       .  A
O585        C594   1.260       .  A
O586        C596   1.272       .  A
O587        C595   1.277       .  A
O588        C597   1.269       .  A
O589        C598   1.260       .  A
O590        C597   1.272       .  A
O591        C598   1.277       .  A
O592        C599   1.272       .  A
O593        C599   1.269       .  A
C594        C622   1.446       .  S
C595        C620   1.446       .  S
C596        C864   1.431       .  S
C597        C857   1.431       .  S
C598        C621   1.446       .  S
C599        C856   1.431       .  S
Zn600       O605   2.002       .  S
Zn600       O897   1.996       .  S
Zn600       O616   2.015       .  S
Zn601       O604   1.933       .  S
Zn601       O894   2.001       .  S
Zn601       O612   2.016       .  S
Zn602       O892   1.934       .  S
Zn602       O610   1.997       .  S
Zn602       O613   2.015       .  S
Zn603       O604   1.932       .  S
Zn603       O899   1.938       .  S
Zn603       O614   1.938       .  S
O604       Zn890   1.934       .  S
O605        C617   1.270       .  A
O606       Zn889   2.001   1_545  S
O606        C618   1.270       .  A
O607        C619   1.270       .  A
O608        C617   1.269   1_455  A
O609       Zn888   1.996       .  S
O609        C619   1.268   1_565  A
O610        C618   1.268       .  A
O611       Zn891   1.938       .  S
O611        C620   1.261       .  A
O612        C621   1.277       .  A
O613        C620   1.277       .  A
O614        C621   1.261       .  A
O615        C622   1.261       .  A
O616        C622   1.277       .  A
C617        C841   1.430       .  S
C618        C849   1.429       .  S
C619        C845   1.429       .  S
C623        H624   1.116       .  S
C623        C629   1.509       .  S
C623        C628   1.509       .  S
C623        C627   1.510       .  S
C625        H626   1.110       .  S
C625        C631   1.615       .  S
C625        C630   1.614       .  S
C625        C632   1.614       .  S
C627        C630   1.368       .  D
C627        C823   1.441       .  S
C628        C631   1.368       .  D
C628        C830   1.441       .  S
C629        C632   1.368       .  D
C629        C831   1.441       .  S
C630        C838   1.513       .  S
C631        C836   1.514       .  S
C632        C840   1.513       .  S
C633        H634   1.110       .  S
C633        C638   1.614   1_455  S
C635        C929   1.509   1_445  S
C637        C640   1.368       .  D
C637        C839   1.513       .  S
C638        C641   1.368       .  D
C638        C837   1.513       .  S
C639        C642   1.368       .  D
C639        C835   1.514       .  S
C640        C819   1.440       .  S
C641        C923   1.509   1_655  S
C641        C811   1.440       .  S
C642        C815   1.440       .  S
C643        H644   1.116       .  S
C643        C649   1.509       .  S
C643        C648   1.509       .  S
C643        C647   1.509       .  S
C645        H646   1.110       .  S
C645        C651   1.615       .  S
C645        C650   1.615       .  S
C645        C652   1.615       .  S
C647        C650   1.368       .  D
C647        C796   1.440       .  S
C648        C651   1.367       .  D
C648        C801   1.440       .  S
C649        C652   1.368       .  D
C649        C800   1.440       .  S
C650        C806   1.513       .  S
C651        C809   1.514       .  S
C652        C807   1.513       .  S
C653        H654   1.116       .  S
C653        C659   1.512       .  S
C653        C658   1.512       .  S
C653        C657   1.512       .  S
C655        H656   1.110       .  S
C655        C661   1.612       .  S
C655        C660   1.613       .  S
C655        C662   1.613       .  S
C657        C660   1.367       .  D
C657        C853   1.440       .  S
C658        C661   1.367       .  D
C658        C860   1.440       .  S
C659        C662   1.367       .  D
C659        C861   1.440       .  S
C660        C805   1.513       .  S
C661        C808   1.513       .  S
C662        C810   1.514       .  S
Zn663       O667   1.931       .  S
Zn663       O668   1.911       .  S
Zn663       O672   1.912       .  S
Zn663       O679   1.911       .  S
Zn664       O667   1.939       .  S
Zn664       O669   2.003       .  S
Zn664       O671   2.033       .  S
Zn664       O675   2.004       .  S
Zn665       O667   1.938       .  S
Zn665       O670   2.032       .  S
Zn665       O673   2.004       .  S
Zn665       O676   2.003       .  S
Zn666       O667   1.939       .  S
Zn666       O674   2.005       .  S
Zn666       O677   2.003       .  S
Zn666       O678   2.033       .  S
O668        C680   1.257       .  A
O669        C681   1.270       .  A
O670        C682   1.279       .  A
O671        C680   1.279       .  A
O672        C682   1.257       .  A
O673        C681   1.270       .  A
O674        C683   1.271       .  A
O675        C684   1.270       .  A
O676        C683   1.270       .  A
O677        C684   1.270       .  A
O678        C685   1.279       .  A
O679        C685   1.257       .  A
C680        C706   1.446       .  S
C681        C797   1.433       .  S
C682        C708   1.446       .  S
C683        C793   1.433       .  S
C684        C804   1.433       .  S
C685        C707   1.446       .  S
Zn686       O983   2.002       .  S
Zn686       O702   2.034       .  S
Zn687       O690   1.938       .  S
Zn687       O980   2.008   1_545  S
Zn687       O694   2.003       .  S
Zn687       O698   2.033       .  S
Zn688       O693   2.008       .  S
Zn688       O699   2.033       .  S
Zn689       O690   1.930       .  S
Zn689       O700   1.911       .  S
O691        C703   1.271       .  A
O692       Zn975   2.008       .  S
O692        C704   1.271       .  A
O693        C705   1.271       .  A
O694        C703   1.270       .  A
O695       Zn974   2.002       .  S
O695        C705   1.270       .  A
O696        C704   1.270       .  A
O697        C706   1.257       .  A
O698        C707   1.279       .  A
O699        C706   1.279       .  A
O700        C707   1.257       .  A
O701        C708   1.257       .  A
O702        C708   1.279       .  A
C703        C834   1.433       .  S
C704        C827   1.434       .  S
C705        C826   1.433       .  S
C709        H710   1.116       .  S
C709        C715   1.509       .  S
C709        C714   1.509       .  S
C709        C713   1.509       .  S
C711        H712   1.110       .  S
C711        C717   1.613       .  S
C711        C716   1.613       .  S
C711        C718   1.614       .  S
C713        C716   1.366       .  D
C713        C852   1.438       .  S
C714        C717   1.366       .  D
C714        C844   1.439       .  S
C715        C718   1.366       .  D
C715        C848   1.438       .  S
C716        C792   1.511       .  S
C717        C790   1.511       .  S
C718        C787   1.512       .  S
C719        H720   1.116       .  S
C719        C724   1.509       .  S
C721        H722   1.110       .  S
C721       C1014   1.613   1_445  S
C721        C728   1.614   1_455  S
C723        C726   1.367       .  D
C723        C778   1.439       .  S
C724        C727   1.367       .  D
C724        C786   1.439       .  S
C725        C728   1.367       .  D
C725        C779   1.439       .  S
C726       C1009   1.613   1_655  S
C726        C789   1.511       .  S
C727        C791   1.511       .  S
C728        C788   1.512       .  S
Zn729       O733   1.937       .  S
Zn729       O734   2.003       .  S
Zn729       O738   2.004       .  S
Zn729       O745   2.026       .  S
Zn730       O733   1.936       .  S
Zn730       O735   2.002       .  S
Zn730       O737   2.003       .  S
Zn730       O741   2.025       .  S
Zn731       O733   1.937       .  S
Zn731       O736   2.002       .  S
Zn731       O739   2.004       .  S
Zn731       O742   2.025       .  S
Zn732       O733   1.932       .  S
Zn732       O740   1.924   1_556  S
Zn732       O743   1.925   1_556  S
Zn732       O744   1.924   1_556  S
O734        C746   1.270       .  A
O735        C747   1.270       .  A
O736        C748   1.270       .  A
O737        C746   1.270       .  A
O738        C748   1.270       .  A
O739        C747   1.270       .  A
O740        C749   1.259       .  A
O741        C750   1.278   1_556  A
O742        C749   1.278   1_556  A
O743        C750   1.259       .  A
O744        C751   1.259       .  A
O745        C751   1.278   1_556  A
C746        C822   1.432       .  S
C747        C814   1.432       .  S
C748        C818   1.432       .  S
C749       C1061   1.446       .  S
C750        C769   1.447       .  S
Zn752       O756   1.936       .  S
Zn752       O757   2.029       .  S
Zn752       O761   2.004       .  S
Zn752       O768   2.000       .  S
Zn753       O756   1.925       .  S
Zn753       O758   1.919       .  S
Zn753       O760   1.919       .  S
Zn753       O764   1.919       .  S
Zn754       O756   1.937       .  S
Zn754       O759   2.001       .  S
Zn754       O762   2.029       .  S
Zn754       O765   2.004       .  S
Zn755       O756   1.936       .  S
Zn755       O763   2.000       .  S
Zn755       O766   2.028       .  S
Zn755       O767   2.004       .  S
O757        C769   1.278       .  A
O758        C770   1.258       .  A
O759        C771   1.269       .  A
O760        C769   1.258       .  A
O761        C771   1.271       .  A
O762        C770   1.278       .  A
O763        C772   1.269       .  A
O764        C773   1.258       .  A
O765        C772   1.271       .  A
O766        C773   1.278       .  A
O767        C774   1.271       .  A
O768        C774   1.269       .  A
C771        C775   1.431       .  S
C772        C782   1.431       .  S
C773       C1037   1.446   1_545  S
C774        C783   1.431       .  S
C775        C776   1.205       .  T
C776        C777   1.411       .  S
C777        C778   1.204       .  T
C779        C780   1.204       .  T
C780        C781   1.411       .  S
C781        C782   1.205       .  T
C783        C784   1.205       .  T
C784        C785   1.411       .  S
C785        C786   1.204       .  T
C787        C788   1.249       .  T
C789        C790   1.248       .  T
C791        C792   1.248       .  T
C793       C1082   1.206   1_545  T
C794       C1081   1.206       .  T
C794        C795   1.413       .  S
C795        C796   1.205       .  T
C798        C799   1.413       .  S
C799        C800   1.205       .  T
C801        C802   1.205       .  T
C802        C803   1.413       .  S
C803        C804   1.206       .  T
C805       C1094   1.249   1_545  T
C806       C1093   1.249       .  T
C809        C810   1.249       .  T
C811        C812   1.205       .  T
C812        C813   1.413       .  S
C813        C814   1.206       .  T
C815        C816   1.205       .  T
C816        C817   1.413       .  S
C817        C818   1.206       .  T
C819        C820   1.205       .  T
C820        C821   1.413       .  S
C821        C822   1.206       .  T
C823        C824   1.205       .  T
C824        C825   1.414       .  S
C825        C826   1.207       .  T
C827        C828   1.207       .  T
C828        C829   1.414       .  S
C829        C830   1.205       .  T
C831        C832   1.205       .  T
C832        C833   1.414       .  S
C833        C834   1.207       .  T
C835        C836   1.250       .  T
C837        C838   1.249       .  T
C839        C840   1.249       .  T
C841        C842   1.204       .  T
C842        C843   1.410       .  S
C843        C844   1.203       .  T
C845        C846   1.204       .  T
C846        C847   1.410       .  S
C847        C848   1.203       .  T
C849        C850   1.204       .  T
C850        C851   1.410       .  S
C851        C852   1.203       .  T
C853        C854   1.204       .  T
C854        C855   1.411       .  S
C855       C1144   1.205   1_545  T
C856       C1143   1.205       .  T
C858        C859   1.411       .  S
C859        C860   1.204       .  T
C861        C862   1.204       .  T
C862        C863   1.411       .  S
C863        C864   1.205       .  T
Zn865       O869   1.932       .  S
Zn865       O870   2.026       .  S
Zn865       O874   2.007       .  S
Zn865       O881   1.999       .  S
Zn866       O869   1.915       .  S
Zn866       O871   1.925       .  S
Zn866       O873   1.925       .  S
Zn866       O877   1.926       .  S
Zn867       O869   1.931       .  S
Zn867       O872   1.999       .  S
Zn867       O875   2.026       .  S
Zn867       O878   2.007       .  S
Zn868       O869   1.931       .  S
Zn868       O876   1.999       .  S
Zn868       O879   2.027       .  S
Zn868       O880   2.007       .  S
O870        C882   1.277       .  A
O871        C883   1.260       .  A
O872        C884   1.269       .  A
O873        C882   1.260       .  A
O874        C884   1.272       .  A
O875        C883   1.277       .  A
O876        C885   1.269       .  A
O877        C886   1.260       .  A
O878        C885   1.272       .  A
O879        C886   1.277       .  A
O880        C887   1.272       .  A
O881        C887   1.269       .  A
C882        C910   1.446       .  S
C883        C908   1.446       .  S
C884       C1152   1.431       .  S
C885       C1145   1.431       .  S
C886        C909   1.446       .  S
C887       C1144   1.431       .  S
Zn888       O893   2.002       .  S
Zn888       O904   2.015       .  S
Zn889       O892   1.933   1_565  S
Zn889       O900   2.016       .  S
Zn890       O898   1.997       .  S
Zn890       O901   2.015       .  S
Zn891       O892   1.932       .  S
Zn891       O902   1.938   1_545  S
O893        C905   1.270       .  A
O894        C906   1.270       .  A
O895        C907   1.270       .  A
O896        C905   1.269   1_455  A
O897        C907   1.268       .  A
O898        C906   1.268       .  A
O899        C908   1.261       .  A
O900        C909   1.277       .  A
O901        C908   1.277       .  A
O902        C909   1.261       .  A
O903        C910   1.261       .  A
O904        C910   1.277       .  A
C905       C1129   1.430       .  S
C906       C1137   1.429       .  S
C907       C1133   1.429       .  S
C911        H912   1.116       .  S
C911        C917   1.509       .  S
C911        C916   1.509       .  S
C911        C915   1.510       .  S
C913        H914   1.110       .  S
C913        C919   1.615       .  S
C913        C918   1.614       .  S
C913        C920   1.614       .  S
C915        C918   1.368       .  D
C915       C1111   1.441       .  S
C916        C919   1.368       .  D
C916       C1118   1.441       .  S
C917        C920   1.368       .  D
C917       C1119   1.441       .  S
C918       C1126   1.513       .  S
C919       C1124   1.514       .  S
C920       C1128   1.513       .  S
C921        H922   1.110       .  S
C921        C926   1.614   1_445  S
C925        C928   1.368       .  D
C925       C1127   1.513       .  S
C926        C929   1.368       .  D
C926       C1125   1.513       .  S
C927        C930   1.368       .  D
C927       C1123   1.514       .  S
C928       C1107   1.440       .  S
C929       C1099   1.440       .  S
C930       C1103   1.440       .  S
C931        H932   1.116       .  S
C931        C937   1.509       .  S
C931        C936   1.509       .  S
C931        C935   1.509       .  S
C933        H934   1.110       .  S
C933        C939   1.615       .  S
C933        C938   1.615       .  S
C933        C940   1.615       .  S
C935        C938   1.368       .  D
C935       C1084   1.440       .  S
C936        C939   1.367       .  D
C936       C1089   1.440       .  S
C937        C940   1.368       .  D
C937       C1088   1.440       .  S
C938       C1094   1.513       .  S
C939       C1097   1.514       .  S
C940       C1095   1.513       .  S
C941        H942   1.116       .  S
C941        C947   1.512       .  S
C941        C946   1.512       .  S
C941        C945   1.512       .  S
C943        H944   1.110       .  S
C943        C949   1.612       .  S
C943        C948   1.613       .  S
C943        C950   1.613       .  S
C945        C948   1.367       .  D
C945       C1141   1.440       .  S
C946        C949   1.367       .  D
C946       C1148   1.440       .  S
C947        C950   1.367       .  D
C947       C1149   1.440       .  S
C948       C1093   1.513       .  S
C949       C1096   1.513       .  S
C950       C1098   1.514       .  S
Zn951       O955   1.931       .  S
Zn951       O956   1.911       .  S
Zn951       O960   1.912       .  S
Zn951       O967   1.911       .  S
Zn952       O955   1.939       .  S
Zn952       O957   2.003       .  S
Zn952       O959   2.033       .  S
Zn952       O963   2.004       .  S
Zn953       O955   1.938       .  S
Zn953       O958   2.032       .  S
Zn953       O961   2.004       .  S
Zn953       O964   2.003       .  S
Zn954       O955   1.939       .  S
Zn954       O962   2.005       .  S
Zn954       O965   2.003       .  S
Zn954       O966   2.033       .  S
O956        C968   1.257       .  A
O957        C969   1.270       .  A
O958        C970   1.279       .  A
O959        C968   1.279       .  A
O960        C970   1.257       .  A
O961        C969   1.270       .  A
O962        C971   1.271       .  A
O963        C972   1.270       .  A
O964        C971   1.270       .  A
O965        C972   1.270       .  A
O966        C973   1.279       .  A
O967        C973   1.257       .  A
C968        C994   1.446       .  S
C969       C1085   1.433       .  S
C970        C996   1.446       .  S
C971       C1081   1.433       .  S
C972       C1092   1.433       .  S
C973        C995   1.446       .  S
Zn974       O990   2.034       .  S
Zn975       O978   1.938       .  S
Zn975       O982   2.003       .  S
Zn975       O986   2.033       .  S
Zn976       O981   2.008       .  S
Zn976       O987   2.033       .  S
Zn977       O978   1.930       .  S
Zn977       O988   1.911       .  S
O979        C991   1.271       .  A
O980        C992   1.271       .  A
O981        C993   1.271       .  A
O982        C991   1.270       .  A
O983        C993   1.270   1_545  A
O984        C992   1.270       .  A
O985        C994   1.257       .  A
O986        C995   1.279       .  A
O987        C994   1.279       .  A
O988        C995   1.257       .  A
O989        C996   1.257       .  A
O990        C996   1.279       .  A
C991       C1122   1.433       .  S
C992       C1115   1.434       .  S
C993       C1114   1.433       .  S
C997        H998   1.116       .  S
C997       C1003   1.509       .  S
C997       C1002   1.509       .  S
C997       C1001   1.509       .  S
C999       H1000   1.110       .  S
C999       C1005   1.613       .  S
C999       C1004   1.613       .  S
C999       C1006   1.614       .  S
C1001      C1004   1.366       .  D
C1001      C1140   1.438       .  S
C1002      C1005   1.366       .  D
C1002      C1132   1.439       .  S
C1003      C1006   1.366       .  D
C1003      C1136   1.438       .  S
C1004      C1080   1.511       .  S
C1005      C1078   1.511       .  S
C1006      C1075   1.512       .  S
C1007      H1008   1.116       .  S
C1007      C1012   1.509       .  S
C1009      H1010   1.110       .  S
C1009      C1016   1.614   1_455  S
C1011      C1014   1.367       .  D
C1011      C1066   1.439       .  S
C1012      C1015   1.367       .  D
C1012      C1074   1.439       .  S
C1013      C1016   1.367       .  D
C1013      C1067   1.439       .  S
C1014      C1077   1.511       .  S
C1015      C1079   1.511       .  S
C1016      C1076   1.512       .  S
Zn1017     O1021   1.937       .  S
Zn1017     O1022   2.003       .  S
Zn1017     O1026   2.004       .  S
Zn1017     O1033   2.026       .  S
Zn1018     O1021   1.936       .  S
Zn1018     O1023   2.002       .  S
Zn1018     O1025   2.003       .  S
Zn1018     O1029   2.025       .  S
Zn1019     O1021   1.937       .  S
Zn1019     O1024   2.002       .  S
Zn1019     O1027   2.004       .  S
Zn1019     O1030   2.025       .  S
Zn1020     O1021   1.932       .  S
Zn1020     O1028   1.924   1_556  S
Zn1020     O1031   1.925   1_556  S
Zn1020     O1032   1.924   1_556  S
O1022      C1034   1.270       .  A
O1023      C1035   1.270       .  A
O1024      C1036   1.270       .  A
O1025      C1034   1.270       .  A
O1026      C1036   1.270       .  A
O1027      C1035   1.270       .  A
O1028      C1037   1.259       .  A
O1029      C1038   1.278   1_556  A
O1030      C1037   1.278   1_556  A
O1031      C1038   1.259       .  A
O1032      C1039   1.259       .  A
O1033      C1039   1.278   1_556  A
C1034      C1110   1.432       .  S
C1035      C1102   1.432       .  S
C1036      C1106   1.432       .  S
C1038      C1057   1.447       .  S
Zn1040     O1044   1.936       .  S
Zn1040     O1045   2.029       .  S
Zn1040     O1049   2.004       .  S
Zn1040     O1056   2.000       .  S
Zn1041     O1044   1.925       .  S
Zn1041     O1046   1.919       .  S
Zn1041     O1048   1.919       .  S
Zn1041     O1052   1.919       .  S
Zn1042     O1044   1.937       .  S
Zn1042     O1047   2.001       .  S
Zn1042     O1050   2.029       .  S
Zn1042     O1053   2.004       .  S
Zn1043     O1044   1.936       .  S
Zn1043     O1051   2.000       .  S
Zn1043     O1054   2.028       .  S
Zn1043     O1055   2.004       .  S
O1045      C1057   1.278       .  A
O1046      C1058   1.258       .  A
O1047      C1059   1.269       .  A
O1048      C1057   1.258       .  A
O1049      C1059   1.271       .  A
O1050      C1058   1.278       .  A
O1051      C1060   1.269       .  A
O1052      C1061   1.258       .  A
O1053      C1060   1.271       .  A
O1054      C1061   1.278       .  A
O1055      C1062   1.271       .  A
O1056      C1062   1.269       .  A
C1059      C1063   1.431       .  S
C1060      C1070   1.431       .  S
C1062      C1071   1.431       .  S
C1063      C1064   1.205       .  T
C1064      C1065   1.411       .  S
C1065      C1066   1.204       .  T
C1067      C1068   1.204       .  T
C1068      C1069   1.411       .  S
C1069      C1070   1.205       .  T
C1071      C1072   1.205       .  T
C1072      C1073   1.411       .  S
C1073      C1074   1.204       .  T
C1075      C1076   1.249       .  T
C1077      C1078   1.248       .  T
C1079      C1080   1.248       .  T
C1082      C1083   1.413       .  S
C1083      C1084   1.205       .  T
C1086      C1087   1.413       .  S
C1087      C1088   1.205       .  T
C1089      C1090   1.205       .  T
C1090      C1091   1.413       .  S
C1091      C1092   1.206       .  T
C1097      C1098   1.249       .  T
C1099      C1100   1.205       .  T
C1100      C1101   1.413       .  S
C1101      C1102   1.206       .  T
C1103      C1104   1.205       .  T
C1104      C1105   1.413       .  S
C1105      C1106   1.206       .  T
C1107      C1108   1.205       .  T
C1108      C1109   1.413       .  S
C1109      C1110   1.206       .  T
C1111      C1112   1.205       .  T
C1112      C1113   1.414       .  S
C1113      C1114   1.207       .  T
C1115      C1116   1.207       .  T
C1116      C1117   1.414       .  S
C1117      C1118   1.205       .  T
C1119      C1120   1.205       .  T
C1120      C1121   1.414       .  S
C1121      C1122   1.207       .  T
C1123      C1124   1.250       .  T
C1125      C1126   1.249       .  T
C1127      C1128   1.249       .  T
C1129      C1130   1.204       .  T
C1130      C1131   1.410       .  S
C1131      C1132   1.203       .  T
C1133      C1134   1.204       .  T
C1134      C1135   1.410       .  S
C1135      C1136   1.203       .  T
C1137      C1138   1.204       .  T
C1138      C1139   1.410       .  S
C1139      C1140   1.203       .  T
C1141      C1142   1.204       .  T
C1142      C1143   1.411       .  S
C1146      C1147   1.411       .  S
C1147      C1148   1.204       .  T
C1149      C1150   1.204       .  T
C1150      C1151   1.411       .  S
C1151      C1152   1.205       .  T
