geometry optimzed in LAMMPS
_audit_creation_date              2020-12-01 
_audit_creation_method            'lammps2cif' 
_symmetry_space_group_name_H-M    'P1' 
_symmetry_Int_Tables_number       1 
_symmetry_cell_setting            triclinic 
loop_ 
_symmetry_equiv_pos_as_xyz 
  x,y,z 
_cell_length_a                    59.39668978 
_cell_length_b                    59.55636405527851 
_cell_length_c                    40.31477585517859 
_cell_angle_alpha                 89.93256840720763 
_cell_angle_beta                  90.03636252375516 
_cell_angle_gamma                 120.89683491822322 
loop_ 
_atom_site_label 
_atom_site_type_symbol 
_atom_site_fract_x 
_atom_site_fract_y 
_atom_site_fract_z 
_atom_site_charge 
O1          O  0.58212794  0.67152737  0.28487357    -0.81300
C2          C  0.49048336  0.62210329  0.20342647     0.98100
O3          O  0.50148491  0.61206307  0.21923185    -0.70400
O4          O  0.55081383  0.63301718  0.20238500    -0.74000
Al5        Al  0.53351828  0.62597136  0.24344338     1.49000
C6          C  0.57452385  0.65024186  0.19741806     0.93300
O7          O  0.56814526  0.70261782  0.21077789    -0.80200
O8          O  0.52493569  0.68215086  0.28971987    -0.73800
Al9        Al  0.57303407  0.68528782  0.24755144     1.90100
O10         O  0.52923602  0.69541435  0.22409182    -0.72900
O11         O  0.49120633  0.63328649  0.27561317    -0.72700
O12         O  0.49726205  0.64563603  0.20874762    -0.78400
O13         O  0.51550678  0.61591903  0.28453549    -0.76600
O14         O  0.53990157  0.65849377  0.24667754    -1.12700
O15         O  0.56388002  0.63141348  0.26674916    -0.71900
C16         C  0.57951292  0.64912742  0.28614871     0.98800
C17         C  0.55018047  0.70788501  0.20757702     0.95200
Al18       Al  0.51303560  0.66377833  0.24930050     1.55600
O19         O  0.58610645  0.67007972  0.21616210    -0.76500
C20         C  0.49570281  0.61760730  0.29138620     0.99400
C21         C  0.54734361  0.70138707  0.29626459     0.94300
O22         O  0.56691561  0.70591450  0.27882778    -0.81800
O23         O  0.30808069  0.40333842  0.46142644    -0.81300
C24         C  0.35786495  0.49304761  0.04238393     0.98100
O25         O  0.36742555  0.48149071  0.02696691    -0.70400
O26         O  0.34690990  0.43218568  0.04478378    -0.74000
Al27       Al  0.35592938  0.45100573  0.50252120     1.49000
C28         C  0.32938292  0.40867339  0.05026631     0.93300
O29         O  0.27722518  0.41531771  0.04004410    -0.80200
O30         O  0.30147999  0.46346115  0.45802762    -0.73800
Al31       Al  0.29313422  0.40972485  0.00233985     1.90100
O32         O  0.28383491  0.45376244  0.02604270    -0.72900
O33         O  0.35096429  0.49553887  0.47297034    -0.72700
O34         O  0.33408765  0.48610571  0.03836486    -0.78400
O35         O  0.36654055  0.46999842  0.46215283    -0.76600
O36         O  0.32386171  0.44613760  0.50014045    -1.12700
O37         O  0.34872579  0.42092113  0.47765712    -0.71900
C38         C  0.33014143  0.40501766  0.45939235     0.98800
C39         C  0.27197157  0.43323287  0.04335437     0.95200
Al40       Al  0.32000549  0.47392660  0.49858533     1.55600
O41         O  0.30914796  0.39730302  0.03230206    -0.76500
C42         C  0.36614104  0.49065904  0.45674376     0.99400
C43         C  0.28086450  0.44177730  0.45291347     0.94300
O44         O  0.27596463  0.42175492  0.46958893    -0.81800
O45         O  0.07967723  0.40228425  0.29125119    -0.81300
C46         C  0.11935320  0.49161986  0.20707258     0.98100
O47         O  0.09874882  0.48105071  0.22436070    -0.70400
O48         O  0.06970905  0.43167669  0.20935646    -0.74000
Al49       Al  0.08133829  0.44961055  0.24964692     1.49000
C50         C  0.06293996  0.40807920  0.20485879     0.93300
O51         O  0.12292198  0.41617492  0.21535579    -0.80200
O52         O  0.14841349  0.46108465  0.29255429    -0.73800
Al53       Al  0.10174305  0.41145044  0.25305754     1.90100
O54         O  0.15552754  0.45545030  0.22686044    -0.72900
O55         O  0.13252536  0.49348711  0.27876170    -0.72700
O56         O  0.13675173  0.48584413  0.21188179    -0.78400
O57         O  0.09068138  0.46808025  0.29011016    -0.76600
O58         O  0.10797876  0.44415983  0.25163257    -1.12700
O59         O  0.05706222  0.41954512  0.27408314    -0.71900
C60         C  0.05937460  0.40394862  0.29280660     0.98800
C61         C  0.14633419  0.43428105  0.21086473     0.95200
Al62       Al  0.14058688  0.47158055  0.25242225     1.55600
O63         O  0.07201644  0.39720805  0.22311367    -0.76500
C64         C  0.11253174  0.48840216  0.29577458     0.99400
C65         C  0.14585907  0.43926325  0.29936043     0.94300
O66         O  0.13007809  0.41909948  0.28299967    -0.81800
O67         O  0.58208356  0.89743251  0.46064242    -0.81300
C68         C  0.48909741  0.85924021  0.03642341     0.98100
O69         O  0.49970252  0.87912428  0.01802671    -0.70400
O70         O  0.54834388  0.90984671  0.03662432    -0.74000
Al71       Al  0.53336748  0.89604692  0.49866660     1.49000
C72         C  0.57195393  0.91765306  0.04361644     0.93300
O73         O  0.56713454  0.85860387  0.03822661    -0.80200
O74         O  0.52314222  0.82817903  0.45943439    -0.73800
Al75       Al  0.57267464  0.87885508  0.99907889     1.90100
O76         O  0.52871191  0.82506789  0.02536531    -0.72900
O77         O  0.49020288  0.84469189  0.46945121    -0.72700
O78         O  0.49640882  0.84274294  0.03499838    -0.78400
O79         O  0.51613270  0.88623338  0.45741445    -0.76600
O80         O  0.53893493  0.86952794  0.49880501    -1.12700
O81         O  0.56428850  0.92006314  0.47549171    -0.71900
C82         C  0.58028405  0.91757595  0.45778792     0.98800
C83         C  0.54937484  0.83504936  0.04264393     0.95200
Al84       Al  0.51150544  0.83698882  0.49813916     1.55600
O85         O  0.58437592  0.90894987  0.02786186    -0.76500
C86         C  0.49542469  0.86457098  0.45212685     0.99400
C87         C  0.54526362  0.83056197  0.45492506     0.94300
O88         O  0.56499549  0.84704801  0.47153559    -0.81800
O89         O  0.89710504  0.31198258  0.46550219    -0.81300
C90         C  0.85724193  0.36174266  0.04395670     0.98100
O91         O  0.87776861  0.37172332  0.02646128    -0.70400
O92         O  0.90656954  0.35173597  0.04248309    -0.74000
Al93       Al  0.89448344  0.35909240  0.50220272     1.49000
C94         C  0.91225384  0.33442169  0.04828362     0.93300
O95         O  0.85267133  0.28240025  0.03968472    -0.80200
O96         O  0.82877157  0.29960643  0.45999365    -0.73800
Al97       Al  0.87335957  0.29777560  0.00104889     1.90100
O98         O  0.82002637  0.28790869  0.02650591    -0.72900
O99         O  0.84333614  0.34874952  0.47064811    -0.72700
O100        O  0.83980650  0.33799817  0.04016050    -0.78400
O101        O  0.88533369  0.36659771  0.46054992    -0.76600
O102        O  0.86819624  0.32612138  0.50156916    -1.12700
O103        O  0.91913203  0.35325512  0.47932762    -0.71900
C104        C  0.91703243  0.33453856  0.46223840     0.98800
C105        C  0.82923885  0.27662313  0.04347079     0.95200
Al106      Al  0.83548250  0.31951725  0.49890577     1.55600
O107        O  0.90322866  0.31421398  0.03024962    -0.76500
C108        C  0.86354855  0.36456820  0.45432127     0.99400
C109        C  0.83170946  0.28026255  0.45595819     0.94300
O110        O  0.84707447  0.27712518  0.47437354    -0.81800
O111        O  0.66900394  0.08237721  0.28935107    -0.81300
C112        C  0.61721583  0.12324655  0.21320844     0.98100
O113        O  0.60675666  0.10225147  0.22967524    -0.70400
O114        O  0.62595129  0.07328066  0.21052250    -0.74000
Al115      Al  0.62126536  0.08429008  0.25246410     1.49000
C116        C  0.64286120  0.06713754  0.20402885     0.93300
O117        O  0.69542586  0.12617394  0.21327897    -0.80200
O118        O  0.68032743  0.15042138  0.29517598    -0.73800
Al119      Al  0.68064312  0.10483234  0.25139481     1.90100
O120        O  0.69095510  0.15894161  0.22855562    -0.72900
O121        O  0.63102500  0.13480564  0.28429773    -0.72700
O122        O  0.64112599  0.14011914  0.21688086    -0.78400
O123        O  0.61335970  0.09291738  0.29435252    -0.76600
O124        O  0.65420009  0.11087925  0.25340925    -1.12700
O125        O  0.62771399  0.05985695  0.27498096    -0.71900
C126        C  0.64663274  0.06198431  0.29186600     0.98800
C127        C  0.70084942  0.14945651  0.20957020     0.95200
Al128      Al  0.66040792  0.14336962  0.25609187     1.55600
O129        O  0.66336042  0.07566855  0.22151259    -0.76500
C130        C  0.61525439  0.11456996  0.30064462     0.99400
C131        C  0.70001048  0.14799446  0.29900087     0.94300
O132        O  0.70343641  0.13283260  0.28057786    -0.81800
O133        O  0.90037417  0.58335964  0.28763969    -0.81300
C134        C  0.86069807  0.49178501  0.20652803     0.98100
O135        O  0.88195686  0.50371170  0.22237033    -0.70400
O136        O  0.91037094  0.55355024  0.20575326    -0.74000
Al137      Al  0.89917030  0.53575424  0.24673081     1.49000
C138        C  0.91649693  0.57700058  0.20112933     0.93300
O139        O  0.85582142  0.56738626  0.21161552    -0.80200
O140        O  0.83145545  0.52405386  0.29022175    -0.73800
Al141      Al  0.87769362  0.57321032  0.24947436     1.90100
O142        O  0.82400612  0.52785933  0.22414898    -0.72900
O143        O  0.84837655  0.49223666  0.27788444    -0.72700
O144        O  0.84339928  0.49780085  0.21070677    -0.78400
O145        O  0.89051157  0.51745977  0.28758434    -0.76600
O146        O  0.87206136  0.54066382  0.24891424    -1.12700
O147        O  0.92330035  0.56635509  0.27068517    -0.71900
C148        C  0.92081352  0.58186057  0.28943765     0.98800
C149        C  0.83255390  0.54864299  0.20754949     0.95200
Al150      Al  0.83961701  0.51295669  0.25058938     1.55600
O151        O  0.90708268  0.58748184  0.21937812    -0.76500
C152        C  0.86867955  0.49728670  0.29410244     0.99400
C153        C  0.83365202  0.54587347  0.29603490     0.94300
O154        O  0.84951877  0.56579179  0.27940561    -0.81800
O155        O  0.39607813  0.08286223  0.46102863    -0.81300
C156        C  0.48974892  0.12490424  0.05089631     0.98100
O157        O  0.47856907  0.10354440  0.03557604    -0.70400
O158        O  0.42885144  0.07424729  0.04861678    -0.74000
Al159      Al  0.44444288  0.08413479  0.49988799     1.49000
C160        C  0.40490347  0.06700703  0.05071875     0.93300
O161        O  0.41269556  0.12579077  0.03763435    -0.80200
O162        O  0.45468544  0.15136794  0.45926120    -0.73800
Al163      Al  0.40933975  0.10452604  0.00068423     1.90100
O164        O  0.45222369  0.15897560  0.02740381    -0.72900
O165        O  0.48804504  0.13590349  0.47212717    -0.72700
O166        O  0.48473103  0.14251712  0.04361822    -0.78400
O167        O  0.46275261  0.09445031  0.45896676    -0.76600
O168        O  0.43875050  0.11060678  0.49964132    -1.12700
O169        O  0.41380044  0.06000969  0.47560292    -0.71900
C170        C  0.39792029  0.06281629  0.45793396     0.98800
C171        C  0.43044702  0.14933122  0.04221437     0.95200
Al172      Al  0.46602473  0.14331499  0.49902022     1.55600
O173        O  0.39463464  0.07534648  0.03049620    -0.76500
C174        C  0.48345726  0.11634901  0.45472693     0.99400
C175        C  0.43238449  0.14848603  0.45427319     0.94300
O176        O  0.41281172  0.13257016  0.47143617    -0.81800
O177        O  0.66850048  0.57730139  0.46064371    -0.81300
C178        C  0.61572739  0.48583790  0.04046788     0.98100
O179        O  0.60659334  0.49659804  0.02249305    -0.70400
O180        O  0.62700491  0.54574555  0.03845922    -0.74000
Al181      Al  0.62105439  0.52762533  0.49924468     1.49000
C182        C  0.64452056  0.56899881  0.04484257     0.93300
O183        O  0.69817228  0.56260882  0.03583415    -0.80200
O184        O  0.67953391  0.51935030  0.45823296    -0.73800
Al185      Al  0.68180942  0.56761052  0.99797032     1.90100
O186        O  0.69010728  0.52326772  0.02457926    -0.72900
O187        O  0.62977488  0.48566097  0.46909740    -0.72700
O188        O  0.63947287  0.49230366  0.03728490    -0.78400
O189        O  0.61309624  0.51018697  0.45801776    -0.76600
O190        O  0.65376353  0.53406843  0.49858773    -1.12700
O191        O  0.62754085  0.55800279  0.47576174    -0.71900
C192        C  0.64599287  0.57444781  0.45777420     0.98800
C193        C  0.70282331  0.54441581  0.04048383     0.95200
Al194      Al  0.65899979  0.50717986  0.49742467     1.55600
O195        O  0.66561534  0.58037323  0.02812631    -0.76500
C196        C  0.61488460  0.49037041  0.45187643     0.99400
C197        C  0.69892314  0.54190233  0.45270955     0.94300
O198        O  0.70241995  0.56133934  0.46951480    -0.81800
O199        O  0.39327268  0.30601949  0.28909050    -0.81300
C200        C  0.48458931  0.35828540  0.20635132     0.98100
O201        O  0.47389064  0.36792849  0.22365466    -0.70400
O202        O  0.42428484  0.34770926  0.20840998    -0.74000
Al203      Al  0.44196645  0.35321557  0.24883484     1.49000
C204        C  0.40063093  0.33051839  0.20325388     0.93300
O205        O  0.40647141  0.27778680  0.21155177    -0.80200
O206        O  0.45067121  0.29565582  0.28933578    -0.73800
Al207      Al  0.40215803  0.29378346  0.25012456     1.90100
O208        O  0.44541119  0.28455778  0.22339449    -0.72900
O209        O  0.48458078  0.34466390  0.27686032    -0.72700
O210        O  0.47734982  0.33444753  0.20982345    -0.78400
O211        O  0.46049312  0.36163573  0.28951656    -0.76600
O212        O  0.43536757  0.32059245  0.24953243    -1.12700
O213        O  0.41170971  0.34687191  0.27361524    -0.71900
C214        C  0.39562772  0.32822334  0.29178367     0.98800
C215        C  0.42446903  0.27282924  0.20678882     0.95200
Al216      Al  0.46212044  0.31513729  0.24984012     1.55600
O217        O  0.38905849  0.31014729  0.22109706    -0.76500
C218        C  0.48058507  0.35994945  0.29419863     0.99400
C219        C  0.42833670  0.27622896  0.29566232     0.94300
O220        O  0.40855121  0.27212098  0.27904028    -0.81800
O221        O  0.08375188  0.66981112  0.46125505    -0.81300
C222        C  0.12166537  0.62055759  0.04435386     0.98100
O223        O  0.10043547  0.61055744  0.02848341    -0.70400
O224        O  0.07258568  0.63194080  0.04290855    -0.74000
Al225      Al  0.08460301  0.62521448  0.50614221     1.49000
C226        C  0.06743747  0.64981420  0.04711096     0.93300
O227        O  0.12824896  0.70139390  0.03393199    -0.80200
O228        O  0.15188268  0.68008796  0.46019512    -0.73800
Al229      Al  0.10588137  0.68375800  0.99703599     1.90100
O230        O  0.15945794  0.69343861  0.02238433    -0.72900
O231        O  0.13518517  0.63170750  0.47775563    -0.72700
O232        O  0.13923217  0.64412783  0.03967286    -0.78400
O233        O  0.09338480  0.61464055  0.46662158    -0.76600
O234        O  0.11167687  0.65764080  0.50238769    -1.12700
O235        O  0.06033460  0.63011831  0.48047464    -0.71900
C236        C  0.06329674  0.64745186  0.46002222     0.98800
C237        C  0.15140693  0.70622970  0.03806470     0.95200
Al238      Al  0.14407667  0.66303748  0.50183144     1.55600
O239        O  0.07692683  0.66943660  0.02787747    -0.76500
C240        C  0.11502109  0.61607274  0.46123993     0.99400
C241        C  0.14950302  0.69925693  0.45234455     0.94300
O242        O  0.13414568  0.70406343  0.46838578    -0.81800
O243        O  0.31121196  0.89866562  0.28833489    -0.81300
C244        C  0.36429609  0.86416804  0.20242825     0.98100
O245        O  0.37371967  0.88527272  0.21843561    -0.70400
O246        O  0.35094133  0.91197374  0.20543622    -0.74000
Al247      Al  0.35877011  0.90074734  0.24525691     1.49000
C248        C  0.33279551  0.91685723  0.20171690     0.93300
O249        O  0.28329248  0.85648135  0.21097670    -0.80200
O250        O  0.30260046  0.83130835  0.28823862    -0.73800
Al251      Al  0.29885453  0.87713170  0.24944979     1.90100
O252        O  0.29137582  0.82524344  0.22189220    -0.72900
O253        O  0.35231851  0.85027510  0.27538766    -0.72700
O254        O  0.34134083  0.84574683  0.20846639    -0.78400
O255        O  0.36995569  0.89224468  0.28492961    -0.76600
O256        O  0.32658679  0.87284114  0.24781803    -1.12700
O257        O  0.35173984  0.92308341  0.27137159    -0.71900
C258        C  0.33334149  0.91947671  0.29046983     0.98800
C259        C  0.27904362  0.83374805  0.20572802     0.95200
Al260      Al  0.32226064  0.84092164  0.24847039     1.55600
O261        O  0.31329671  0.90705376  0.22098715    -0.76500
C262        C  0.36825954  0.87066979  0.29122814     0.99400
C263        C  0.28207046  0.83202218  0.29335545     0.94300
O264        O  0.27798354  0.84790591  0.27765044    -0.81800
C265        C  0.21703432  0.78748907  0.33650850    -0.13900
C266        C  0.22464937  0.77622833  0.36129469     0.16500
C267        C  0.25118785  0.78336190  0.36365057     0.02800
C268        C  0.26967693  0.80189413  0.34174130    -0.12400
C269        C  0.26214748  0.81333437  0.31697357    -0.03400
C270        C  0.23537136  0.80561149  0.31412919     0.02100
C271        C  0.20442308  0.75621398  0.38348186     0.08900
N272        N  0.25966075  0.77205315  0.38831317     0.65300
H273        H  0.29004198  0.80729666  0.34410495     0.18200
N274        N  0.22613837  0.81438866  0.28719828     0.75700
H275        H  0.19651009  0.78140437  0.33373023     0.09700
C276        C  0.18908148  0.76214693  0.40414501     0.03400
C277        C  0.17019863  0.74286858  0.42495028    -0.05300
C278        C  0.16632455  0.71751659  0.42584687    -0.23700
C279        C  0.18077616  0.71125482  0.40371655     0.12600
C280        C  0.19973785  0.73063468  0.38301351    -0.12900
N281        N  0.19338812  0.78804142  0.40545502     0.64300
H282        H  0.15940797  0.74822282  0.44163322     0.12100
N283        N  0.17619627  0.68528156  0.40152237     0.60900
H284        H  0.21069935  0.72560536  0.36616717     0.08300
O285        O  0.21790185  0.82980262  0.29262417    -0.40500
O286        O  0.22254058  0.80372809  0.25910697    -0.39700
O287        O  0.26461539  0.75458506  0.38015362    -0.39700
O288        O  0.26662375  0.78265433  0.41647382    -0.37400
O289        O  0.15640512  0.66798678  0.38597367    -0.38300
O290        O  0.19396490  0.68082038  0.41010003    -0.34500
O291        O  0.17709882  0.79286863  0.39212964    -0.35900
O292        O  0.21102386  0.80486211  0.42415014    -0.40200
C293        C  0.22626261  0.80635090  0.13825643    -0.13900
C294        C  0.22067330  0.78046846  0.13636305     0.16500
C295        C  0.23415085  0.77235607  0.15728574     0.02800
C296        C  0.25307706  0.79008792  0.17925579    -0.12400
C297        C  0.25901145  0.81614918  0.18123051    -0.03400
C298        C  0.24522305  0.82421063  0.16044284     0.02100
C299        C  0.20272655  0.76271736  0.11039986     0.08900
N300        N  0.22855334  0.74597044  0.15678137     0.65300
H301        H  0.26301390  0.78316156  0.19509453     0.18200
N302        N  0.25059515  0.85050440  0.16088178     0.75700
H303        H  0.21638671  0.81293467  0.12176081     0.09700
C304        C  0.17591269  0.75467790  0.10949249     0.03400
C305        C  0.15950798  0.73671780  0.08537103    -0.05300
C306        C  0.16950932  0.72678414  0.06167383    -0.23700
C307        C  0.19679528  0.73609639  0.06172457     0.12600
C308        C  0.21292170  0.75364740  0.08609433    -0.12900
N309        N  0.16493664  0.76391963  0.13355035     0.64300
H310        H  0.13876509  0.73011191  0.08569307     0.12100
N311        N  0.20868418  0.72849309  0.03678721     0.60900
H312        H  0.23371577  0.76041572  0.08592312     0.08300
O313        O  0.23557479  0.85589037  0.17653169    -0.40500
O314        O  0.26781775  0.86733761  0.14174965    -0.39700
O315        O  0.24517273  0.74100393  0.14489187    -0.39700
O316        O  0.20962614  0.72875572  0.17362842    -0.37400
O317        O  0.21591530  0.74098747  0.00979710    -0.38300
O318        O  0.21594394  0.71251836  0.04383924    -0.34500
O319        O  0.16117956  0.78233521  0.12615735    -0.35900
O320        O  0.15509089  0.75099626  0.15980760    -0.40200
C321        C  0.51536624  0.40732289  0.36477973    -0.13900
C322        C  0.54165462  0.41571422  0.35758504     0.16500
C323        C  0.54741697  0.40386388  0.33134083     0.02800
C324        C  0.52703161  0.38477121  0.31204312    -0.12400
C325        C  0.50082454  0.37741453  0.31810721    -0.03400
C326        C  0.49499950  0.38850633  0.34519619     0.02100
C327        C  0.56254482  0.43613150  0.37863021     0.08900
N328        N  0.57389109  0.41187622  0.32298125     0.65300
H329        H  0.53192028  0.37656752  0.29118124     0.18200
N330        N  0.46853431  0.38047946  0.35357606     0.75700
H331        H  0.51059126  0.41537641  0.38589890     0.09700
C332        C  0.56387328  0.46011168  0.38430949     0.03400
C333        C  0.58163133  0.47771290  0.40741478    -0.05300
C334        C  0.59834774  0.47199202  0.42540308    -0.23700
C335        C  0.59775170  0.44833111  0.41864662     0.12600
C336        C  0.57989728  0.43072873  0.39542967    -0.12900
N337        N  0.54709348  0.46677543  0.36698592     0.64300
H338        H  0.58189636  0.49582463  0.41165263     0.12100
N339        N  0.61417568  0.44119833  0.43599694     0.60900
H340        H  0.57877427  0.41215250  0.39165830     0.08300
O341        O  0.45992471  0.39555693  0.34784770    -0.40500
O342        O  0.45531010  0.36043078  0.37135180    -0.39700
O343        O  0.58204352  0.39624609  0.32722309    -0.39700
O344        O  0.58735232  0.43233056  0.30597146    -0.37400
O345        O  0.60709245  0.43032028  0.46402654    -0.38300
O346        O  0.63221639  0.44039743  0.42054590    -0.34500
O347        O  0.52900934  0.46748911  0.38246459    -0.35900
O348        O  0.55335550  0.47655883  0.33830138    -0.40200
C349        C  0.55455331  0.43723661  0.08881298    -0.13900
C350        C  0.56507657  0.42919705  0.11397854     0.16500
C351        C  0.59227544  0.43879659  0.11412869     0.02800
C352        C  0.60852446  0.45685516  0.08977884    -0.12400
C353        C  0.59805997  0.46555006  0.06496814    -0.03400
C354        C  0.57052102  0.45499592  0.06442776     0.02100
C355        C  0.54696520  0.41139965  0.14003577     0.08900
N356        N  0.60376253  0.43103419  0.13939098     0.65300
H357        H  0.62946466  0.46447476  0.09073998     0.18200
N358        N  0.55819088  0.46166170  0.03897452     0.75700
H359        H  0.53359112  0.42961097  0.08810998     0.09700
C360        C  0.53502140  0.42035737  0.16222038     0.03400
C361        C  0.51504843  0.40276933  0.18338936    -0.05300
C362        C  0.50623777  0.37583899  0.18311764    -0.23700
C363        C  0.51871045  0.36692413  0.16129136     0.12600
C364        C  0.53888707  0.38472358  0.14004928    -0.12900
N365        N  0.54280899  0.44738921  0.16317579     0.64300
H366        H  0.50626274  0.41041666  0.20002063     0.12100
N367        N  0.51063836  0.33985397  0.15951198     0.60900
H368        H  0.54765548  0.37753295  0.12268139     0.08300
O369        O  0.55011066  0.47707712  0.04533002    -0.40500
O370        O  0.55147537  0.44887472  0.01221434    -0.39700
O371        O  0.61030372  0.41444918  0.13280820    -0.39700
O372        O  0.61182440  0.44417194  0.16580366    -0.37400
O373        O  0.49437450  0.32555093  0.13763575    -0.38300
O374        O  0.52290824  0.33140664  0.17582660    -0.34500
O375        O  0.52971783  0.45518453  0.14743833    -0.35900
O376        O  0.55990681  0.46241803  0.18381127    -0.40200
C377        C  0.35839874  0.99625777  0.41770844    -0.13900
C378        C  0.35890058  0.00305586  0.38435967     0.16500
C379        C  0.36949501  0.02961978  0.37581059     0.02800
C380        C  0.38083598  0.04900360  0.40043292    -0.12400
C381        C  0.38181176  0.04223161  0.43352004    -0.03400
C382        C  0.36966027  0.01554109  0.44224420     0.02100
C383        C  0.35178658  0.98253492  0.35889763     0.08900
N384        N  0.36927858  0.03717048  0.34220917     0.65300
H385        H  0.38993335  0.06943007  0.39344378     0.18200
N386        N  0.36869854  0.00775884  0.47600881     0.75700
H387        H  0.35016217  0.97589939  0.42455794     0.09700
C388        C  0.37161443  0.98076354  0.34224733     0.03400
C389        C  0.36497441  0.96014433  0.32031666    -0.05300
C390        C  0.33867094  0.94049400  0.31479239    -0.23700
C391        C  0.31872726  0.94219639  0.33171328     0.12600
C392        C  0.32544280  0.96318118  0.35351283    -0.12900
N393        N  0.39871621  0.99896119  0.34886586     0.64300
H394        H  0.38076844  0.95924191  0.30815908     0.12100
N395        N  0.29167012  0.92295427  0.32703469     0.60900
H396        H  0.31006732  0.96417183  0.36668003     0.08300
O397        O  0.38356234  0.99973711  0.48567609    -0.40500
O398        O  0.35004646  0.00455070  0.49431672    -0.39700
O399        O  0.34929276  0.03699899  0.33123257    -0.39700
O400        O  0.39046424  0.04891033  0.32607419    -0.37400
O401        O  0.28098407  0.90281174  0.34515753    -0.38300
O402        O  0.27763826  0.92791538  0.30849756    -0.34500
O403        O  0.40908709  0.99633898  0.37477517    -0.35900
O404        O  0.41318687  0.01418077  0.32623156    -0.40200
C405        C  0.33055847  0.97109331  0.15543484    -0.13900
C406        C  0.34765104  0.97511055  0.12921881     0.16500
C407        C  0.35692757  0.95787731  0.12456277     0.02800
C408        C  0.35061467  0.93801530  0.14755410    -0.12400
C409        C  0.33514994  0.93508794  0.17536247    -0.03400
C410        C  0.32417557  0.95118229  0.17859361     0.02100
C411        C  0.35996295  0.00002682  0.11118029     0.08900
N412        N  0.37438695  0.96161649  0.09792668     0.65300
H413        H  0.35882658  0.92555742  0.14439503     0.18200
N414        N  0.30878913  0.94935307  0.20685512     0.75700
H415        H  0.32370110  0.98462254  0.15926479     0.09700
C416        C  0.34887228  0.00355940  0.08233679     0.03400
C417        C  0.36292717  0.02687975  0.06438737    -0.05300
C418        C  0.38819728  0.04637133  0.07450603    -0.23700
C419        C  0.39838411  0.04337472  0.10465030     0.12600
C420        C  0.38419512  0.02025101  0.12270383    -0.12900
N421        N  0.32428812  0.98306828  0.06991635     0.64300
H422        H  0.35492411  0.02883928  0.04111478     0.12100
N423        N  0.42320624  0.06347285  0.11699363     0.60900
H424        H  0.39247304  0.01770453  0.14538955     0.08300
O425        O  0.32001305  0.96159481  0.23304866    -0.40500
O426        O  0.28427688  0.93902754  0.20396478    -0.39700
O427        O  0.39883466  0.97421984  0.10284577    -0.39700
O428        O  0.36538786  0.94892092  0.07134940    -0.37400
O429        O  0.42465357  0.08255896  0.13251293    -0.38300
O430        O  0.44219859  0.05963577  0.11812938    -0.34500
O431        O  0.30471007  0.98600224  0.06948051    -0.35900
O432        O  0.32321360  0.96402928  0.05472117    -0.40200
C433        C  0.43561623  0.20893067  0.08383335    -0.13900
C434        C  0.41943568  0.19770125  0.11155384     0.21300
C435        C  0.40538769  0.17030807  0.11528843     0.02800
C436        C  0.40851516  0.15467207  0.09191420    -0.12400
C437        C  0.42580572  0.16603919  0.06498455    -0.03400
C438        C  0.43893443  0.19347184  0.06064637     0.02100
C439        C  0.41942217  0.21533888  0.13732556     0.08900
N440        N  0.38909670  0.15827089  0.14359954     0.65300
H441        H  0.39820179  0.13365789  0.09560383     0.18200
N442        N  0.45541913  0.20595546  0.03257872     0.75700
H443        H  0.44616595  0.22999856  0.08051869     0.09700
C444        C  0.44250340  0.23150653  0.15521929     0.03400
C445        C  0.44351089  0.24998747  0.17721955    -0.05300
C446        C  0.42175256  0.25298761  0.18216205    -0.23700
C447        C  0.39840164  0.23660301  0.16424848     0.12600
C448        C  0.39741153  0.21785140  0.14212029    -0.12900
N449        N  0.46520888  0.22931444  0.15126132     0.64300
H450        H  0.46170778  0.26210716  0.19050918     0.12100
N451        N  0.37577350  0.23897713  0.16771954     0.60900
H452        H  0.37965955  0.20569033  0.12801409     0.08300
O453        O  0.44547169  0.20806678  0.00595172    -0.40500
O454        O  0.48001744  0.21870045  0.03612741    -0.39700
O455        O  0.36447172  0.14585825  0.14041888    -0.39700
O456        O  0.39915728  0.15634174  0.17022796    -0.37400
O457        O  0.37262236  0.25385121  0.14843746    -0.38300
O458        O  0.35713200  0.22325832  0.18619428    -0.34500
O459        O  0.48437002  0.24618405  0.13439432    -0.35900
O460        O  0.46788713  0.21339553  0.16905153    -0.40200
C461        C  0.44503574  0.19545113  0.38340304    -0.13900
C462        C  0.42628110  0.20248780  0.39006084     0.16500
C463        C  0.40821391  0.18999304  0.41600056     0.02800
C464        C  0.40968306  0.17135785  0.43545259    -0.12400
C465        C  0.42932099  0.16527108  0.42995808    -0.03400
C466        C  0.44679977  0.17711369  0.40316117     0.02100
C467        C  0.42554055  0.22237967  0.36894009     0.08900
N468        N  0.38926581  0.19710746  0.42406284     0.65300
H469        H  0.39619186  0.16262683  0.45607287     0.18200
N470        N  0.46602596  0.17033708  0.39524221     0.75700
H471        H  0.45839818  0.20426397  0.36268174     0.09700
C472        C  0.44778739  0.24756888  0.36566809     0.03400
C473        C  0.44781330  0.26499883  0.34253774    -0.05300
C474        C  0.42595021  0.25784089  0.32212778    -0.23700
C475        C  0.40318646  0.23286458  0.32641492     0.12600
C476        C  0.40319866  0.21544343  0.34977431    -0.12900
N477        N  0.47063683  0.25563505  0.38551448     0.64300
H478        H  0.46536431  0.28414807  0.34022006     0.12100
N479        N  0.38046828  0.22426186  0.30611607     0.60900
H480        H  0.38607819  0.19596828  0.35189815     0.08300
O481        O  0.46006703  0.15133879  0.37608750    -0.40500
O482        O  0.49598761  0.19117687  0.90750909    -0.39700
O483        O  0.36521881  0.18102386  0.41913723    -0.39700
O484        O  0.39603968  0.21726910  0.44130370    -0.37400
O485        O  0.37869007  0.21303751  0.27888066    -0.38300
O486        O  0.36059702  0.22394632  0.31777000    -0.34500
O487        O  0.49098169  0.25781857  0.37248304    -0.35900
O488        O  0.47202240  0.26501933  0.41399538    -0.40200
C489        C  0.00085467  0.61116053  0.40792524    -0.13900
C490        C  0.00336988  0.63095812  0.38679796     0.16500
C491        C  0.02539675  0.65633566  0.38992831     0.02800
C492        C  0.04466009  0.66141380  0.41388199    -0.12400
C493        C  0.04241539  0.64146207  0.43495992    -0.03400
C494        C  0.02000643  0.61602936  0.43168198     0.02100
C495        C  0.98411579  0.62345593  0.35946433     0.08900
N496        N  0.02854172  0.67703943  0.36882019     0.65300
H497        H  0.06147352  0.68107889  0.41587404     0.18200
N498        N  0.01668205  0.59456640  0.45137790     0.75700
H499        H  0.98419416  0.59144840  0.40521101     0.09700
C500        C  0.98790381  0.61347163  0.32979545     0.03400
C501        C  0.96736009  0.60098068  0.30698361    -0.05300
C502        C  0.94261295  0.59804633  0.31302654    -0.23700
C503        C  0.93930621  0.60931387  0.34209211     0.12600
C504        C  0.95998458  0.62177814  0.36508252    -0.12900
N505        N  0.01200484  0.61426083  0.32366633     0.64300
H506        H  0.97067255  0.59286509  0.28474201     0.12100
N507        N  0.91468419  0.60686598  0.34971490     0.60900
H508        H  0.95676488  0.62902834  0.38816731     0.08300
O509        O  0.02557472  0.58061957  0.44109068    -0.40500
O510        O  0.01280052  0.58317292  0.96297221    -0.39700
O511        O  0.01757999  0.68970878  0.37639536    -0.39700
O512        O  0.04581990  0.68566307  0.34641111    -0.37400
O513        O  0.91190844  0.62634467  0.34603971    -0.38300
O514        O  0.89759142  0.58709051  0.36547039    -0.34500
O515        O  0.01419950  0.59489470  0.33115982    -0.35900
O516        O  0.03143812  0.63467781  0.31196127    -0.40200
C517        C  0.97538391  0.63245173  0.15698448    -0.13900
C518        C  0.97836062  0.61878786  0.13076211     0.16500
C519        C  0.95912056  0.59237290  0.12545633     0.02800
C520        C  0.93831710  0.57943370  0.14774212    -0.12400
C521        C  0.93609549  0.59251596  0.17531189    -0.03400
C522        C  0.95439265  0.61955993  0.17928012     0.02100
C523        C  0.00342509  0.63055495  0.11247341     0.08900
N524        N  0.96115267  0.57820766  0.09818083     0.65300
H525        H  0.92425412  0.55880632  0.14400296     0.18200
N526        N  0.95347990  0.63354249  0.20753345     0.75700
H527        H  0.99030761  0.65271541  0.16140717     0.09700
C528        C  0.01002366  0.64950324  0.08759651     0.03400
C529        C  0.03226179  0.65719193  0.06786833    -0.05300
C530        C  0.04818032  0.64634197  0.07288609    -0.23700
C531        C  0.04285020  0.62931913  0.10004421     0.12600
C532        C  0.02043091  0.62136387  0.11925405    -0.12900
N533        N  0.99354886  0.65992469  0.08090370     0.64300
H534        H  0.03615387  0.67049729  0.04735436     0.12100
N535        N  0.05997693  0.61992089  0.10838429     0.60900
H536        H  0.01592244  0.60744814  0.13921865     0.08300
O537        O  0.94526339  0.64920828  0.20441331    -0.40500
O538        O  0.96427460  0.63306779  0.23428372    -0.39700
O539        O  0.96798405  0.56162051  0.10316576    -0.39700
O540        O  0.95280291  0.57973586  0.06998305    -0.37400
O541        O  0.07983813  0.63375943  0.12626580    -0.38300
O542        O  0.05297268  0.59637254  0.10278642    -0.34500
O543        O  0.99975709  0.68218298  0.09198389    -0.35900
O544        O  0.97548044  0.64902566  0.05965510    -0.40200
C545        C  0.76194703  0.57291727  0.09954643    -0.13900
C546        C  0.76259766  0.55034634  0.10790824     0.16500
C547        C  0.74375915  0.52623920  0.09379711     0.02800
C548        C  0.72444930  0.52489671  0.07261758    -0.12400
C549        C  0.72346690  0.54731966  0.06427094    -0.03400
C550        C  0.74280240  0.57167200  0.07774205     0.02100
C551        C  0.78117534  0.55142834  0.13367604     0.08900
N552        N  0.74432115  0.50291764  0.10022740     0.65300
H553        H  0.71022101  0.50599964  0.06238737     0.18200
N554        N  0.74367719  0.59537915  0.06912176     0.75700
H555        H  0.77612504  0.59156873  0.11039459     0.09700
C556        C  0.80868053  0.56762923  0.13074994     0.03400
C557        C  0.82519446  0.56710731  0.15540435    -0.05300
C558        C  0.81477669  0.55057196  0.18315850    -0.23700
C559        C  0.78717017  0.53519943  0.18659935     0.12600
C560        C  0.77082832  0.53576487  0.16203817    -0.12900
N561        N  0.82016943  0.58388710  0.10228982     0.64300
H562        H  0.84627380  0.57909933  0.15226932     0.12100
N563        N  0.77530167  0.51946992  0.21541612     0.60900
H564        H  0.74974332  0.52392460  0.16528768     0.08300
O565        O  0.75752689  0.60878224  0.04489824    -0.40500
O566        O  0.73453297  0.60511752  0.08889348    -0.39700
O567        O  0.72592744  0.48448692  0.11642350    -0.39700
O568        O  0.76048352  0.49895531  0.08491409    -0.37400
O569        O  0.77188038  0.52964670  0.24090137    -0.38300
O570        O  0.76432373  0.49490291  0.21348812    -0.34500
O571        O  0.83015224  0.60830750  0.10484617    -0.35900
O572        O  0.82488065  0.57463997  0.07686908    -0.40200
C573        C  0.73202028  0.53086526  0.37920128    -0.13900
C574        C  0.75865273  0.54757359  0.38698363     0.16500
C575        C  0.76526866  0.56435222  0.41465389     0.02800
C576        C  0.74540520  0.56328102  0.43457101    -0.12400
C577        C  0.71883800  0.54533781  0.42793519    -0.03400
C578        C  0.71219615  0.52938636  0.39952230     0.02100
C579        C  0.77904682  0.54738791  0.36563227     0.08900
N580        N  0.79201348  0.58151975  0.42400250     0.65300
H581        H  0.75088473  0.57555545  0.45646128     0.18200
N582        N  0.68541890  0.51178782  0.39074279     0.75700
H583        H  0.72651154  0.51880109  0.35714081     0.09700
C584        C  0.77767240  0.52373616  0.35706183     0.03400
C585        C  0.79601589  0.52393754  0.33517001    -0.05300
C586        C  0.81618112  0.54737197  0.32130242    -0.23700
C587        C  0.81790681  0.57114372  0.33046448     0.12600
C588        C  0.79934756  0.57089814  0.35221089    -0.12900
N589        N  0.75776903  0.49924306  0.37045164     0.64300
H590        H  0.79414163  0.50538379  0.32874307     0.12100
N591        N  0.83816049  0.59572085  0.31782419     0.60900
H592        H  0.80044719  0.58920978  0.35790497     0.08300
O593        O  0.67253392  0.52043707  0.37633356    -0.40500
O594        O  0.67626151  0.48743863  0.39195986    -0.39700
O595        O  0.80190648  0.60595626  0.42180678    -0.39700
O596        O  0.80405382  0.57257862  0.43983142    -0.37400
O597        O  0.83423342  0.60479914  0.29160196    -0.38300
O598        O  0.85735814  0.61050622  0.33615133    -0.34500
O599        O  0.74044563  0.48230094  0.35153082    -0.35900
O600        O  0.76024536  0.49283170  0.39946055    -0.40200
C601        C  0.55891064  0.09598822  0.36073901    -0.13900
C602        C  0.55980266  0.11987142  0.36370206     0.16500
C603        C  0.58039078  0.14234885  0.34855937     0.02800
C604        C  0.59906976  0.14042098  0.32971463    -0.12400
C605        C  0.59759111  0.11625386  0.32527885    -0.03400
C606        C  0.57756889  0.09396884  0.34191261     0.02100
C607        C  0.54011326  0.12114927  0.38472928     0.08900
N608        N  0.58192442  0.16703693  0.35089423     0.65300
H609        H  0.61426573  0.15789164  0.31747471     0.18200
N610        N  0.57583420  0.06916506  0.34012435     0.75700
H611        H  0.54370528  0.07878086  0.37343389     0.09700
C612        C  0.51304223  0.10546955  0.37805744     0.03400
C613        C  0.49478623  0.10436093  0.40092123    -0.05300
C614        C  0.50311478  0.11892581  0.43034204    -0.23700
C615        C  0.53026068  0.13514249  0.43660224     0.12600
C616        C  0.54845069  0.13617633  0.41374493    -0.12900
N617        N  0.50387319  0.09070424  0.34806879     0.64300
H618        H  0.47400659  0.09205437  0.39566011     0.12100
N619        N  0.53965366  0.14886970  0.46730542     0.60900
H620        H  0.56920480  0.14773889  0.41952239     0.08300
O621        O  0.55886417  0.05149215  0.32161320    -0.40500
O622        O  0.58780428  0.06344443  0.36122339    -0.39700
O623        O  0.59909061  0.18469052  0.36924257    -0.39700
O624        O  0.56985330  0.17283261  0.33005091    -0.37400
O625        O  0.54054800  0.13688158  0.49263926    -0.38300
O626        O  0.55093928  0.17350109  0.46776933    -0.34500
O627        O  0.49359062  0.06617436  0.34890652    -0.35900
O628        O  0.50170862  0.10142937  0.32223243    -0.40200
C629        C  0.55979261  0.12632780  0.17874628    -0.13900
C630        C  0.56632087  0.13101159  0.14502149     0.16500
C631        C  0.59064385  0.13491273  0.13411913     0.02800
C632        C  0.60777659  0.13353360  0.15689275    -0.12400
C633        C  0.60078615  0.12802419  0.19038796    -0.03400
C634        C  0.57688213  0.12498161  0.20144080     0.02100
C635        C  0.54670630  0.13006914  0.12147326     0.08900
N636        N  0.59746398  0.13871121  0.09976669     0.65300
H637        H  0.62599541  0.13558911  0.14816210     0.18200
N638        N  0.57021690  0.12138160  0.23588964     0.75700
H639        H  0.54128811  0.12361626  0.18741467     0.09700
C640        C  0.52394773  0.10606172  0.11420379     0.03400
C641        C  0.50543247  0.10522898  0.09215163    -0.05300
C642        C  0.50875489  0.12808599  0.07713943    -0.23700
C643        C  0.53125536  0.15233147  0.08516578     0.12600
C644        C  0.55016026  0.15311233  0.10701344    -0.12900
N645        N  0.51973317  0.08219891  0.12840844     0.64300
H646        H  0.48845219  0.08633118  0.08628905     0.12100
N647        N  0.53569595  0.17608793  0.07045390     0.60900
H648        H  0.56755609  0.17173715  0.11276168     0.08300
O649        O  0.55212365  0.09953179  0.24642475    -0.40500
O650        O  0.58253209  0.14011745  0.25586328    -0.39700
O651        O  0.61394060  0.16129097  0.08931012    -0.39700
O652        O  0.59095748  0.11910896  0.08150997    -0.37400
O653        O  0.52800436  0.18962409  0.08520358    -0.38300
O654        O  0.55085257  0.18557965  0.04583995    -0.34500
O655        O  0.50499887  0.07262428  0.15338275    -0.35900
O656        O  0.52697123  0.06861376  0.11284262    -0.40200
C657        C  0.73482778  0.19441869  0.37043446    -0.13900
C658        C  0.76101572  0.20258634  0.36331169     0.16500
C659        C  0.76684602  0.19090591  0.33704523     0.02800
C660        C  0.74649695  0.17195675  0.31746098    -0.12400
C661        C  0.72027437  0.16462000  0.32351081    -0.03400
C662        C  0.71446428  0.17558703  0.35086912     0.02100
C663        C  0.78182671  0.22336479  0.38380007     0.08900
N664        N  0.79340283  0.19927726  0.32877134     0.65300
H665        H  0.75139897  0.16396872  0.29639667     0.18200
N666        N  0.68802286  0.16764891  0.35931282     0.75700
H667        H  0.73020469  0.20290152  0.39122146     0.09700
C668        C  0.78562536  0.24868334  0.38386356     0.03400
C669        C  0.80270651  0.26711318  0.40673489    -0.05300
C670        C  0.81613690  0.26077045  0.43008053    -0.23700
C671        C  0.81300488  0.23553114  0.42918808     0.12600
C672        C  0.79600696  0.21715350  0.40593612    -0.12900
N673        N  0.77183002  0.25577631  0.36115878     0.64300
H674        H  0.80500220  0.28638848  0.40656097     0.12100
N675        N  0.82543585  0.22760676  0.45298061     0.60900
H676        H  0.79286089  0.19753370  0.40625543     0.08300
O677        O  0.67913574  0.18229487  0.35226043    -0.40500
O678        O  0.67528748  0.14851967  0.37865959    -0.39700
O679        O  0.80263338  0.18493406  0.33583482    -0.39700
O680        O  0.80621642  0.21887966  0.31014470    -0.37400
O681        O  0.81427182  0.21799610  0.48033350    -0.38300
O682        O  0.84513953  0.22619865  0.44460707    -0.34500
O683        O  0.75364800  0.25897380  0.37161590    -0.35900
O684        O  0.78073468  0.26319831  0.33226321    -0.40200
C685        C  0.73698807  0.20299004  0.14519252    -0.13900
C686        C  0.75622033  0.19773371  0.13422261     0.16500
C687        C  0.75707952  0.17644156  0.14802641     0.02800
C688        C  0.73869348  0.16073563  0.17219711    -0.12400
C689        C  0.71944192  0.16602697  0.18326040    -0.03400
C690        C  0.71866460  0.18741135  0.16933412     0.02100
C691        C  0.77558334  0.21546620  0.10925117     0.08900
N692        N  0.77620789  0.17027727  0.13735993     0.65300
H693        H  0.73968567  0.14447116  0.18261287     0.18200
N694        N  0.69899981  0.19321786  0.17873032     0.75700
H695        H  0.73629532  0.21950103  0.13505631     0.09700
C696        C  0.76715612  0.21994568  0.07859239     0.03400
C697        C  0.78502052  0.23996756  0.05780140    -0.05300
C698        C  0.81158230  0.25549613  0.06649480    -0.23700
C699        C  0.82037260  0.25019888  0.09640516     0.12600
C700        C  0.80230224  0.23040855  0.11763032    -0.12900
N701        N  0.74049051  0.20408386  0.06810591     0.64300
H702        H  0.77806346  0.24319739  0.03442425     0.12100
N703        N  0.84714557  0.26577159  0.10655349     0.60900
H704        H  0.80897454  0.22747154  0.14138717     0.08300
O705        O  0.67786485  0.18343243  0.16250056    -0.40500
O706        O  0.70465354  0.21160316  0.19882680    -0.39700
O707        O  0.79535625  0.17544091  0.15598449    -0.39700
O708        O  0.77139383  0.15548586  0.11266793    -0.37400
O709        O  0.85456418  0.28662357  0.12255451    -0.38300
O710        O  0.86216821  0.25670272  0.10420947    -0.34500
O711        O  0.72614956  0.21395238  0.06599187    -0.35900
O712        O  0.73296124  0.18208128  0.05508446    -0.40200
C713        C  0.88547803  0.46509039  0.36362014    -0.13900
C714        C  0.86455580  0.43909933  0.36117110     0.16500
C715        C  0.84425246  0.43294813  0.33833276     0.02800
C716        C  0.84551298  0.45244896  0.31777079    -0.12400
C717        C  0.86682240  0.47830482  0.31933257    -0.03400
C718        C  0.88666711  0.48475372  0.34319289     0.02100
C719        C  0.86362408  0.41884571  0.38352928     0.08900
N720        N  0.82275173  0.40672337  0.33474456     0.65300
H721        H  0.83011560  0.44699484  0.29956906     0.18200
N722        N  0.90766995  0.51119664  0.34760981     0.75700
H723        H  0.90067518  0.47023885  0.38202282     0.09700
C724        C  0.88429841  0.41376613  0.38450328     0.03400
C725        C  0.88351023  0.39554206  0.40708046    -0.05300
C726        C  0.86226624  0.38193721  0.42894854    -0.23700
C727        C  0.84124077  0.38667093  0.42745073     0.12600
C728        C  0.84218487  0.40506813  0.40495665    -0.12900
N729        N  0.90607636  0.42671709  0.36234532     0.64300
H730        H  0.89976728  0.39212953  0.40751615     0.12100
N731        N  0.81936860  0.37395198  0.44953398     0.60900
H732        H  0.82635436  0.40911948  0.40483627     0.08300
O733        O  0.93113374  0.51707492  0.34343824    -0.40500
O734        O  0.90282201  0.52864765  0.35630111    -0.39700
O735        O  0.80007603  0.40102350  0.34376917    -0.39700
O736        O  0.82556787  0.39057479  0.31770183    -0.37400
O737        O  0.82011223  0.38429274  0.47713085    -0.38300
O738        O  0.79800975  0.35478186  0.43941713    -0.34500
O739        O  0.92820357  0.44396970  0.37331813    -0.35900
O740        O  0.90429711  0.41784412  0.33344581    -0.40200
C741        C  0.83626899  0.38658761  0.11833640    -0.13900
C742        C  0.85034887  0.41367434  0.11235356     0.16500
C743        C  0.86608946  0.42330019  0.08375518     0.02800
C744        C  0.86745950  0.40592945  0.06169956    -0.12400
C745        C  0.85379795  0.37882294  0.06773776    -0.03400
C746        C  0.83787664  0.36913263  0.09634899     0.02100
C747        C  0.85047196  0.43196646  0.13743879     0.08900
N748        N  0.88217020  0.45081243  0.07789810     0.65300
H749        H  0.87987979  0.41387709  0.03998293     0.18200
N750        N  0.82453468  0.34192467  0.10447242     0.75700
H751        H  0.82452329  0.37904528  0.14064747     0.09700
C752        C  0.83835084  0.44670114  0.13162571     0.03400
C753        C  0.84133131  0.46575750  0.15463615    -0.05300
C754        C  0.85630126  0.47042542  0.18354680    -0.23700
C755        C  0.86753233  0.45484763  0.18983904     0.12600
C756        C  0.86464011  0.43598217  0.16678343    -0.12900
N757        N  0.82269648  0.44226533  0.10270702     0.64300
H758        H  0.83225638  0.47722237  0.14960595     0.12100
N759        N  0.88130435  0.45739444  0.22001517     0.60900
H760        H  0.87383084  0.42459173  0.17162693     0.08300
O761        O  0.80016432  0.32781825  0.09954815    -0.40500
O762        O  0.83627493  0.33290424  0.12081337    -0.39700
O763        O  0.90295061  0.46402240  0.09448808    -0.39700
O764        O  0.87850630  0.46070284  0.05226541    -0.37400
O765        O  0.86867681  0.44479900  0.24537909    -0.38300
O766        O  0.90597645  0.46829812  0.21970687    -0.34500
O767        O  0.79907545  0.42382779  0.10263300    -0.35900
O768        O  0.83064918  0.45954635  0.08037865    -0.40200
C769        C  0.61478412  0.98374866  0.41501719    -0.13900
C770        C  0.62063030  0.97752275  0.38403707     0.16500
C771        C  0.61560483  0.95197063  0.37834098     0.02800
C772        C  0.60356629  0.93275838  0.40317474    -0.12400
C773        C  0.59637379  0.93868601  0.43366625    -0.03400
C774        C  0.60278378  0.96474939  0.43970738     0.02100
C775        C  0.62897852  0.99737982  0.35735225     0.08900
N776        N  0.62257912  0.94531890  0.34752929     0.65300
H777        H  0.59904318  0.91298492  0.39817806     0.18200
N778        N  0.59685703  0.97225170  0.47066546     0.75700
H779        H  0.61860998  0.00334697  0.41963368     0.09700
C780        C  0.61087383  0.99537604  0.33327800     0.03400
C781        C  0.61747897  0.01630538  0.31177529    -0.05300
C782        C  0.64185243  0.03983608  0.31396153    -0.23700
C783        C  0.66036503  0.04144682  0.33743184     0.12600
C784        C  0.65372937  0.02032625  0.35892414    -0.12900
N785        N  0.58489067  0.97304531  0.33211886     0.64300
H786        H  0.60288249  0.01432582  0.29398187     0.12100
N787        N  0.68552044  0.06464937  0.34077899     0.60900
H788        H  0.66763705  0.02218585  0.37773129     0.08300
O789        O  0.57631788  0.97342615  0.47333384    -0.40500
O790        O  0.62200881  0.98660857  0.99366936    -0.39700
O791        O  0.64620469  0.95224732  0.34213826    -0.39700
O792        O  0.60487931  0.92874139  0.32868397    -0.37400
O793        O  0.68872073  0.08182303  0.36164618    -0.38300
O794        O  0.70527119  0.06587032  0.32725201    -0.34500
O795        O  0.56777833  0.97148228  0.35207420    -0.35900
O796        O  0.57779631  0.95801445  0.30732854    -0.40200
C797        C  0.61436075  0.02513559  0.12756865    -0.13900
C798        C  0.61990644  0.00529186  0.13397256     0.16500
C799        C  0.63594235  0.00785698  0.16120872     0.02800
C800        C  0.64485891  0.02930700  0.18250417    -0.12400
C801        C  0.63749958  0.04800630  0.17756696    -0.03400
C802        C  0.62266575  0.04619645  0.14931223     0.02100
C803        C  0.60780062  0.98163705  0.11277664     0.08900
N804        N  0.64163133  0.98787352  0.16901408     0.65300
H805        H  0.65609899  0.03034829  0.20428595     0.18200
N806        N  0.61572417  0.06545349  0.14253578     0.75700
H807        H  0.60287308  0.02388872  0.10597242     0.09700
C808        C  0.58040187  0.96688896  0.10845880     0.03400
C809        C  0.56934476  0.94555607  0.08702333    -0.05300
C810        C  0.58498527  0.93836353  0.06915039    -0.23700
C811        C  0.61247089  0.95270909  0.07416244     0.12600
C812        C  0.62358954  0.97419128  0.09583271    -0.12900
N813        N  0.56345228  0.97341205  0.12558898     0.64300
H814        H  0.54820203  0.93484585  0.08399458     0.12100
N815        N  0.62943953  0.94631912  0.05686165     0.60900
H816        H  0.64472954  0.98553001  0.09877093     0.08300
O817        O  0.59290490  0.06065615  0.14915932    -0.40500
O818        O  0.63078075  0.08520648  0.12517652    -0.39700
O819        O  0.66461610  0.99222848  0.16513801    -0.39700
O820        O  0.62512431  0.96794270  0.18505334    -0.37400
O821        O  0.64131320  0.95898061  0.03117176    -0.38300
O822        O  0.63620109  0.93159079  0.07045757    -0.34500
O823        O  0.55251083  0.98353397  0.10977582    -0.35900
O824        O  0.55537188  0.96431883  0.15425384    -0.40200
C825        C  0.41896298  0.88768890  0.35956108    -0.13900
C826        C  0.42224223  0.86596811  0.35833735     0.16500
C827        C  0.40658610  0.84531839  0.33642624     0.02800
C828        C  0.38852031  0.84692837  0.31584803    -0.12400
C829        C  0.38584297  0.86906416  0.31608032    -0.03400
C830        C  0.40112553  0.88951580  0.33863241     0.02100
C831        C  0.44144531  0.86480397  0.38081591     0.08900
N832        N  0.40964007  0.82309322  0.33367937     0.65300
H833        H  0.37722323  0.83104519  0.29862332     0.18200
N834        N  0.39858842  0.91207453  0.34099817     0.75700
H835        H  0.43017172  0.90328604  0.37717186     0.09700
C836        C  0.46779815  0.88540387  0.38208253     0.03400
C837        C  0.48505701  0.88447645  0.40480827    -0.05300
C838        C  0.47673659  0.86324163  0.42665366    -0.23700
C839        C  0.45040095  0.84230879  0.42495375     0.12600
C840        C  0.43308534  0.84335722  0.40225760    -0.12900
N841        N  0.47742682  0.90735367  0.36022092     0.64300
H842        H  0.50518212  0.90069972  0.40537763     0.12100
N843        N  0.44057917  0.82034266  0.44683781     0.60900
H844        H  0.41273855  0.82760183  0.40204561     0.08300
O845        O  0.41714751  0.93406189  0.33152998    -0.40500
O846        O  0.37972460  0.91078219  0.35705268    -0.39700
O847        O  0.39096430  0.80071246  0.34169735    -0.39700
O848        O  0.42921993  0.82518300  0.31854948    -0.37400
O849        O  0.43147444  0.82115593  0.47478556    -0.38300
O850        O  0.43707035  0.79885763  0.43620532    -0.34500
O851        O  0.48374625  0.92953576  0.37171342    -0.35900
O852        O  0.48406195  0.90559318  0.33106121    -0.40200
C853        C  0.39521956  0.83574757  0.14595254    -0.13900
C854        C  0.41610190  0.85858904  0.13204324     0.16500
C855        C  0.41910335  0.88297070  0.14039156     0.02800
C856        C  0.40172882  0.88419836  0.16273246    -0.12400
C857        C  0.38090900  0.86142617  0.17701077    -0.03400
C858        C  0.37756413  0.83692733  0.16805365     0.02100
C859        C  0.43366120  0.85675670  0.10728094     0.08900
N860        N  0.44011472  0.90675727  0.12689277     0.65300
H861        H  0.40470682  0.90322386  0.16910950     0.18200
N862        N  0.35676361  0.81311428  0.18170188     0.75700
H863        H  0.39239811  0.81683929  0.13926743     0.09700
C864        C  0.44925333  0.84587264  0.11516712     0.03400
C865        C  0.46620716  0.84538985  0.09123268    -0.05300
C866        C  0.46826718  0.85608864  0.05956096    -0.23700
C867        C  0.45183099  0.86601867  0.05137455     0.12600
C868        C  0.43472707  0.86613341  0.07509447    -0.12900
N869        N  0.44932527  0.83680279  0.14795692     0.64300
H870        H  0.47882672  0.83793081  0.09803431     0.12100
N871        N  0.45209907  0.87589652  0.01892824     0.60900
H872        H  0.42228725  0.87382530  0.06837971     0.08300
O873        O  0.36138864  0.80229553  0.20551025    -0.40500
O874        O  0.33519184  0.80073617  0.16646891    -0.39700
O875        O  0.43528922  0.91942771  0.10583563    -0.39700
O876        O  0.46271900  0.91698008  0.13949884    -0.37400
O877        O  0.44328256  0.87100643  0.50393293    -0.38300
O878        O  0.46378874  0.90028432  0.01417958    -0.34500
O879        O  0.44016222  0.81273191  0.15305735    -0.35900
O880        O  0.46243158  0.85309799  0.17040653    -0.40200
C881        C  0.09729580  0.51857703  0.36878067    -0.13900
C882        C  0.11629246  0.54510195  0.36470041     0.16500
C883        C  0.13513277  0.55261406  0.33934309     0.02800
C884        C  0.13415117  0.53369715  0.31789229    -0.12400
C885        C  0.11448155  0.50722981  0.32110093    -0.03400
C886        C  0.09618144  0.49965294  0.34727843     0.02100
C887        C  0.11654408  0.56444817  0.38786528     0.08900
N888        N  0.15465790  0.57949085  0.33421906     0.65300
H889        H  0.14831521  0.53994151  0.29786809     0.18200
N890        N  0.07679535  0.47279695  0.35292041     0.75700
H891        H  0.08331095  0.51248524  0.38899710     0.09700
C892        C  0.09427270  0.56675766  0.39188416     0.03400
C893        C  0.09437099  0.58381043  0.41565870    -0.05300
C894        C  0.11639926  0.59884222  0.43587587    -0.23700
C895        C  0.13886364  0.59665337  0.43157574     0.12600
C896        C  0.13867954  0.57952666  0.40771031    -0.12900
N897        N  0.07144157  0.55202526  0.37179471     0.64300
H898        H  0.07697132  0.58523290  0.41819462     0.12100
N899        N  0.16172729  0.61097948  0.45175228     0.60900
H900        H  0.15569898  0.57743952  0.40532041     0.08300
O901        O  0.05334568  0.46422426  0.34425217    -0.40500
O902        O  0.08213096  0.45900182  0.37133423    -0.39700
O903        O  0.17813832  0.58769431  0.34238914    -0.39700
O904        O  0.14935779  0.59374848  0.31669741    -0.37400
O905        O  0.16381399  0.60098017  0.47831885    -0.38300
O906        O  0.18165185  0.63092729  0.44003454    -0.34500
O907        O  0.05084152  0.53348713  0.38454870    -0.35900
O908        O  0.07035283  0.56053980  0.34353284    -0.40200
C909        C  0.11782893  0.56056457  0.08169769    -0.13900
C910        C  0.12705115  0.56907628  0.11388480     0.16500
C911        C  0.13676586  0.59545342  0.12243660     0.02800
C912        C  0.13614417  0.61262776  0.09905453    -0.12400
C913        C  0.12562547  0.60364952  0.06736151    -0.03400
C914        C  0.11701735  0.57751262  0.05849107     0.02100
C915        C  0.12541243  0.54968279  0.13821063     0.08900
N916        N  0.14582555  0.60459357  0.15527643     0.65300
H917        H  0.14271980  0.63262369  0.10616554     0.18200
N918        N  0.10778611  0.56800510  0.02574918     0.75700
H919        H  0.11088943  0.54046551  0.07467177     0.09700
C920        C  0.10086163  0.52823003  0.14736576     0.03400
C921        C  0.09956859  0.50927534  0.16893251    -0.05300
C922        C  0.12242613  0.51102921  0.18172232    -0.23700
C923        C  0.14710555  0.53219007  0.17184064     0.12600
C924        C  0.14837919  0.55142381  0.15041288    -0.12900
N925        N  0.07700697  0.52573097  0.13542761     0.64300
H926        H  0.08039579  0.49314195  0.17600540     0.12100
N927        N  0.17096024  0.53477977  0.18382866     0.60900
H928        H  0.16737564  0.56760000  0.14289258     0.08300
O929        O  0.08345940  0.55402570  0.02040910    -0.40500
O930        O  0.12370013  0.56909192  0.00419822    -0.39700
O931        O  0.17013243  0.61805809  0.16099055    -0.39700
O932        O  0.12977968  0.60283417  0.17710515    -0.37400
O933        O  0.18182165  0.52480550  0.16759635    -0.38300
O934        O  0.18354140  0.55096198  0.20660375    -0.34500
O935        O  0.06330132  0.50823291  0.11447026    -0.35900
O936        O  0.06754334  0.53785486  0.14981433    -0.40200
C937        C  0.99329427  0.37081902  0.33633613    -0.13900
C938        C  0.99907833  0.36235699  0.36572567     0.16500
C939        C  0.02400714  0.36530814  0.36985934     0.02800
C940        C  0.04329658  0.37812183  0.34538405    -0.12400
C941        C  0.03798714  0.38795576  0.31661362    -0.03400
C942        C  0.01231222  0.38335133  0.31175237     0.02100
C943        C  0.97973459  0.35354447  0.39295919     0.08900
N944        N  0.02990511  0.35529783  0.39867231     0.65300
H945        H  0.06264296  0.38097136  0.34932845     0.18200
N946        N  0.00514465  0.39131458  0.28205115     0.75700
H947        H  0.97406776  0.36841185  0.33290947     0.09700
C948        C  0.98228403  0.37131094  0.41769650     0.03400
C949        C  0.96199927  0.36429591  0.44042822    -0.05300
C950        C  0.93858357  0.33980051  0.43880222    -0.23700
C951        C  0.93635445  0.32170802  0.41436378     0.12600
C952        C  0.95689155  0.32875755  0.39168298    -0.12900
N953        N  0.00455072  0.39731198  0.41843187     0.64300
H954        H  0.96438311  0.37860519  0.45884465     0.12100
N955        N  0.91299437  0.29667656  0.41112227     0.60900
H956        H  0.95461811  0.31518546  0.37223774     0.08300
O957        O  0.00444313  0.41213390  0.28190998    -0.40500
O958        O  0.99472931  0.37527124  0.25849944    -0.39700
O959        O  0.02484909  0.33196909  0.39873181    -0.39700
O960        O  0.04460208  0.37084470  0.42087275    -0.37400
O961        O  0.89489889  0.29401712  0.39210819    -0.38300
O962        O  0.91229534  0.27664930  0.42274715    -0.34500
O963        O  0.00436625  0.41501936  0.40142455    -0.35900
O964        O  0.02201657  0.40350285  0.44023178    -0.40200
C965        C  0.95700142  0.36424970  0.12220361    -0.13900
C966        C  0.97477275  0.35575630  0.11698507     0.16500
C967        C  0.96953249  0.33701561  0.09229600     0.02800
C968        C  0.94781820  0.32871996  0.07141524    -0.12400
C969        C  0.93125886  0.33896959  0.07482528    -0.03400
C970        C  0.93532934  0.35600600  0.10147558     0.02100
C971        C  0.99938373  0.36812011  0.13628095     0.08900
N972        N  0.98704247  0.32764832  0.08671157     0.65300
H973        H  0.94491148  0.31550633  0.05119251     0.18200
N974        N  0.91776139  0.36525833  0.10763256     0.75700
H975        H  0.96039974  0.37794438  0.14201760     0.09700
C976        C  0.01707612  0.39522654  0.13364192     0.03400
C977        C  0.03857893  0.40744570  0.15485876    -0.05300
C978        C  0.04289235  0.39319749  0.17923082    -0.23700
C979        C  0.02589148  0.36573807  0.18075986     0.12600
C980        C  0.00428579  0.35343934  0.15925458    -0.12900
N981        N  0.01298163  0.41073717  0.11006542     0.64300
H982        H  0.05150595  0.42847608  0.15291490     0.12100
N983        N  0.02921492  0.35034039  0.20529907     0.60900
H984        H  0.99064922  0.33256338  0.16150633     0.08300
O985        O  0.92509585  0.38893349  0.10231014    -0.40500
O986        O  0.89643429  0.35077238  0.12262797    -0.39700
O987        O  0.98057797  0.30481871  0.09575656    -0.39700
O988        O  0.00688184  0.34049800  0.06841637    -0.37400
O989        O  0.01658778  0.34492788  0.23216945    -0.38300
O990        O  0.04150456  0.33891209  0.19809572    -0.34500
O991        O  0.00410445  0.42487849  0.11961849    -0.35900
O992        O  0.02238083  0.41375378  0.08124363    -0.40200
C993        C  0.35920219  0.32857528  0.36967789    -0.13900
C994        C  0.35346090  0.34809856  0.36162500     0.16500
C995        C  0.35972813  0.35923946  0.32960466     0.02800
C996        C  0.37234146  0.35150574  0.30693225    -0.12400
C997        C  0.37930297  0.33296694  0.31546188    -0.03400
C998        C  0.37190007  0.32086311  0.34690697     0.02100
C999        C  0.34510218  0.35962928  0.38823932     0.08900
N1000       N  0.35554310  0.38006865  0.32066668     0.65300
H1001       H  0.37773945  0.36094314  0.28284038     0.18200
N1002       N  0.37897378  0.30231013  0.35707615     0.75700
H1003       H  0.35484594  0.32011607  0.39434801     0.09700
C1004       C  0.32145355  0.35987991  0.38697950     0.03400
C1005       C  0.31665417  0.37446671  0.41043646    -0.05300
C1006       C  0.33484986  0.38851694  0.43574747    -0.23700
C1007       C  0.35784644  0.38690377  0.43776721     0.12600
C1008       C  0.36273541  0.37280800  0.41407896    -0.12900
N1009       N  0.30182257  0.34477338  0.36278030     0.64300
H1010       H  0.29860369  0.37479059  0.40878409     0.12100
N1011       N  0.37661135  0.39942879  0.46375155     0.60900
H1012       H  0.38090592  0.37266639  0.41547640     0.08300
O1013       O  0.36230086  0.27815694  0.35539947    -0.40500
O1014       O  0.40016428  0.31000268  0.37257344    -0.39700
O1015       O  0.36985406  0.40246682  0.33317447    -0.39700
O1016       O  0.34128658  0.37745366  0.29601842    -0.37400
O1017       O  0.37447035  0.38703443  0.49011096    -0.38300
O1018       O  0.39744938  0.42091141  0.45819646    -0.34500
O1019       O  0.28871910  0.32017505  0.36549782    -0.35900
O1020       O  0.29402441  0.35591172  0.34318692    -0.40200
C1021       C  0.38591713  0.36304272  0.13358635    -0.13900
C1022       C  0.35972914  0.35499086  0.14041002     0.16500
C1023       C  0.34576859  0.33530392  0.16417741     0.02800
C1024       C  0.35900869  0.32597367  0.18313693    -0.12400
C1025       C  0.38589412  0.33573001  0.17816170    -0.03400
C1026       C  0.39901823  0.35344773  0.15198020     0.02100
C1027       C  0.34791518  0.36786013  0.12227402     0.08900
N1028       N  0.31858426  0.32550591  0.17030131     0.65300
H1029       H  0.34854950  0.31211460  0.20292154     0.18200
N1030       N  0.42565192  0.36192200  0.14385591     0.75700
H1031       H  0.39637175  0.37719524  0.11406698     0.09700
C1032       C  0.35909310  0.39517251  0.12438067     0.03400
C1033       C  0.35181657  0.40798058  0.10167829    -0.05300
C1034       C  0.33334326  0.39396764  0.07680624    -0.23700
C1035       C  0.32071882  0.36630875  0.07632626     0.12600
C1036       C  0.32820418  0.35355872  0.09898375    -0.12900
N1037       N  0.37868795  0.41024461  0.14863619     0.64300
H1038       H  0.36132101  0.42911706  0.10291122     0.12100
N1039       N  0.30187448  0.35102181  0.05143025     0.60900
H1040       H  0.31980111  0.33259165  0.09693694     0.08300
O1041       O  0.43063087  0.34761787  0.12599518    -0.40500
O1042       O  0.44353739  0.38514754  0.14989624    -0.39700
O1043       O  0.30155406  0.30510108  0.15554553    -0.39700
O1044       O  0.31188460  0.33383066  0.19489667    -0.37400
O1045       O  0.31449835  0.34963168  0.52036249    -0.38300
O1046       O  0.27774421  0.33908523  0.05837653    -0.34500
O1047       O  0.40246560  0.42358924  0.14007882    -0.35900
O1048       O  0.37183223  0.41405870  0.17667857    -0.40200
C1049       C  0.24727743  0.45700298  0.38365426    -0.13900
C1050       C  0.22077344  0.43997409  0.39174742     0.16500
C1051       C  0.21440778  0.42269615  0.41873909     0.02800
C1052       C  0.23437553  0.42271944  0.43707477    -0.12400
C1053       C  0.26089421  0.44024785  0.42967876    -0.03400
C1054       C  0.26732721  0.45753275  0.40258339     0.02100
C1055       C  0.20004256  0.43943566  0.37065639     0.08900
N1056       N  0.18779133  0.40598465  0.42892306     0.65300
H1057       H  0.22903129  0.40977238  0.45832704     0.18200
N1058       N  0.29402620  0.47531343  0.39356532     0.75700
H1059       H  0.25245195  0.46986453  0.36235237     0.09700
C1060       C  0.19941138  0.46232624  0.36403273     0.03400
C1061       C  0.18100511  0.46151364  0.34171896    -0.05300
C1062       C  0.16283617  0.43813859  0.32560560    -0.23700
C1063       C  0.16286794  0.41498726  0.33332175     0.12600
C1064       C  0.18152080  0.41591309  0.35541683    -0.12900
N1065       N  0.21729500  0.48655871  0.37984263     0.64300
H1066       H  0.18131723  0.47955965  0.33666500     0.12100
N1067       N  0.14457868  0.39049067  0.31847900     0.60900
H1068       H  0.18196071  0.39819854  0.36002098     0.08300
O1069       O  0.30513894  0.49884759  0.40289677    -0.40500
O1070       O  0.30476768  0.46879065  0.37168707    -0.39700
O1071       O  0.17704543  0.38153909  0.42549712    -0.39700
O1072       O  0.17694123  0.41509597  0.44684045    -0.37400
O1073       O  0.15150726  0.38230249  0.29395844    -0.38300
O1074       O  0.12328179  0.37525991  0.33311026    -0.34500
O1075       O  0.23516855  0.50496335  0.36301644    -0.35900
O1076       O  0.21211682  0.49122904  0.40845797    -0.40200
C1077       C  0.22506416  0.44624282  0.09249280    -0.13900
C1078       C  0.21619120  0.42690681  0.11704388     0.16500
C1079       C  0.22409580  0.40830043  0.11590199     0.02800
C1080       C  0.24202354  0.41037739  0.09159013    -0.12400
C1081       C  0.25177521  0.43044124  0.06763195    -0.03400
C1082       C  0.24224087  0.44791690  0.06764387     0.02100
C1083       C  0.19889484  0.42705838  0.14347802     0.08900
N1084       N  0.21448597  0.38753620  0.13958444     0.65300
H1085       H  0.24854422  0.39639336  0.09175949     0.18200
N1086       N  0.24895590  0.46690303  0.04195688     0.75700
H1087       H  0.21826495  0.46001954  0.09237071     0.09700
C1088       C  0.20778818  0.44904569  0.16417613     0.03400
C1089       C  0.19034712  0.45089479  0.18560694    -0.05300
C1090       C  0.16378877  0.43097659  0.18736348    -0.23700
C1091       C  0.15504654  0.40846843  0.16726894     0.12600
C1092       C  0.17260641  0.40676892  0.14552922    -0.12900
N1093       N  0.23465003  0.46970383  0.16371586     0.64300
H1094       H  0.19784186  0.46815852  0.20106785     0.12100
N1095       N  0.12835194  0.38748348  0.16790092     0.60900
H1096       H  0.16544473  0.38993748  0.12934131     0.08300
O1097       O  0.26314774  0.49094886  0.04851594    -0.40500
O1098       O  0.24937221  0.47826982  0.52119060    -0.39700
O1099       O  0.19558794  0.36519368  0.13193143    -0.39700
O1100       O  0.22765890  0.39019573  0.16538644    -0.37400
O1101       O  0.11179173  0.38801110  0.14879842    -0.38300
O1102       O  0.12220683  0.36686835  0.18384732    -0.34500
O1103       O  0.24079129  0.49162328  0.15143004    -0.35900
O1104       O  0.25142025  0.46739072  0.18018772    -0.40200
C1105       C  0.65149485  0.62273499  0.39024750    -0.13900
C1106       C  0.62520413  0.61611172  0.38760260     0.16500
C1107       C  0.60631918  0.59646105  0.40830094     0.02800
C1108       C  0.61381084  0.58379685  0.43108374    -0.12400
C1109       C  0.64003024  0.58982979  0.43364136    -0.03400
C1110       C  0.65906386  0.60984960  0.41303203     0.02100
C1111       C  0.61697464  0.62767213  0.36103320     0.08900
N1112       N  0.57911869  0.58801348  0.40507224     0.65300
H1113       H  0.59859241  0.56848283  0.44623914     0.18200
N1114       N  0.68600737  0.61716508  0.41454602     0.75700
H1115       H  0.66613172  0.63765124  0.37409210     0.09700
C1116       C  0.60975571  0.64637120  0.36778633     0.03400
C1117       C  0.59870697  0.65406215  0.34265256    -0.05300
C1118       C  0.59407972  0.64290860  0.31086433    -0.23700
C1119       C  0.60194053  0.62458190  0.30402499     0.12600
C1120       C  0.61354141  0.61746677  0.32896066    -0.12900
N1121       N  0.61305214  0.65731893  0.40018675     0.64300
H1122       H  0.59275445  0.66804457  0.34842406     0.12100
N1123       N  0.59806788  0.61270291  0.27207092     0.60900
H1124       H  0.61882085  0.60290745  0.32363427     0.08300
O1125       O  0.70203267  0.63720945  0.43075045    -0.40500
O1126       O  0.69451975  0.60666878  0.39502432    -0.39700
O1127       O  0.56557222  0.57151453  0.38302039    -0.39700
O1128       O  0.56771560  0.59279471  0.42797487    -0.37400
O1129       O  0.61781470  0.61766680  0.25480875    -0.38300
O1130       O  0.57619758  0.59268567  0.26531953    -0.34500
O1131       O  0.63456529  0.67746988  0.40775131    -0.35900
O1132       O  0.59319478  0.65044328  0.41822461    -0.40200
C1133       C  0.60985677  0.58511785  0.11113484    -0.13900
C1134       C  0.62294553  0.61245482  0.10866806     0.16500
C1135       C  0.64572444  0.62557738  0.08896455     0.02800
C1136       C  0.65361757  0.61110326  0.06997229    -0.12400
C1137       C  0.63910974  0.58358333  0.07025472    -0.03400
C1138       C  0.61754821  0.57062278  0.09217627     0.02100
C1139       C  0.61206998  0.62639789  0.12693005     0.08900
N1140       N  0.66022963  0.65346253  0.08660382     0.65300
H1141       H  0.67033991  0.62150210  0.05356722     0.18200
N1142       N  0.60276868  0.54272495  0.09495490     0.75700
H1143       H  0.59310259  0.57483244  0.12752978     0.09700
C1144       C  0.58537588  0.61855359  0.12348465     0.03400
C1145       C  0.57398291  0.62791519  0.14548056    -0.05300
C1146       C  0.58877792  0.64560167  0.17073155    -0.23700
C1147       C  0.61607780  0.65545879  0.17212640     0.12600
C1148       C  0.62738254  0.64545150  0.15064115    -0.12900
N1149       N  0.56940029  0.60051316  0.09822364     0.64300
H1150       H  0.55314732  0.62065589  0.14332892     0.12100
N1151       N  0.63231981  0.67450412  0.19625653     0.60900
H1152       H  0.64791459  0.65168361  0.15361119     0.08300
O1153       O  0.58049566  0.52993714  0.08143688    -0.40500
O1154       O  0.60993356  0.53142717  0.11519331    -0.39700
O1155       O  0.68237737  0.66627645  0.10042335    -0.39700
O1156       O  0.65325882  0.66472459  0.06604747    -0.37400
O1157       O  0.63797552  0.66733113  0.22285058    -0.38300
O1158       O  0.64442058  0.69845273  0.18863946    -0.34500
O1159       O  0.55099829  0.57796217  0.10617471    -0.35900
O1160       O  0.57059107  0.60863429  0.06898745    -0.40200
C1161       C  0.43698690  0.59755983  0.13639863    -0.13900
C1162       C  0.42846504  0.57078458  0.13595302     0.16500
C1163       C  0.44015748  0.56119949  0.15756116     0.02800
C1164       C  0.46004224  0.57824186  0.17914742    -0.12400
C1165       C  0.46906722  0.60523133  0.17967038    -0.03400
C1166       C  0.45713896  0.61483146  0.15799421     0.02100
C1167       C  0.40932669  0.55321667  0.11076949     0.08900
N1168       N  0.43260022  0.53422004  0.15700558     0.65300
H1169       H  0.46860811  0.57013206  0.19543357     0.18200
N1170       N  0.46573090  0.64204947  0.15677776     0.75700
H1171       H  0.42838569  0.60516952  0.11936140     0.09700
C1172       C  0.38228619  0.53761235  0.11767856     0.03400
C1173       C  0.36538822  0.51879331  0.09456912    -0.05300
C1174       C  0.37520477  0.51498809  0.06475898    -0.23700
C1175       C  0.40215912  0.53157055  0.05733893     0.12600
C1176       C  0.41886908  0.55039348  0.08030777    -0.12900
N1177       N  0.37189652  0.54014449  0.14844719     0.64300
H1178       H  0.34477272  0.50639468  0.10057816     0.12100
N1179       N  0.41286325  0.52971417  0.02640419     0.60900
H1180       H  0.43960625  0.56244922  0.07469351     0.08300
O1181       O  0.45215326  0.65021950  0.17037641    -0.40500
O1182       O  0.48445549  0.65706580  0.13792534    -0.39700
O1183       O  0.44510816  0.52695153  0.13910232    -0.39700
O1184       O  0.41644984  0.51864333  0.17813165    -0.37400
O1185       O  0.41462141  0.54429877  0.00260080    -0.38300
O1186       O  0.42501689  0.51751006  0.02494229    -0.34500
O1187       O  0.35999046  0.55260523  0.14943099    -0.35900
O1188       O  0.37043714  0.52618792  0.17286336    -0.40200
C1189       C  0.41062978  0.55402121  0.41067262    -0.13900
C1190       C  0.41794506  0.54476863  0.38329819     0.16500
C1191       C  0.40781558  0.51774836  0.37971708     0.02800
C1192       C  0.39109025  0.50038995  0.40398943    -0.12400
C1193       C  0.38387805  0.50956362  0.43166811    -0.03400
C1194       C  0.39377886  0.53671217  0.43490156     0.02100
C1195       C  0.43779170  0.56372182  0.36007267     0.08900
N1196       N  0.41401382  0.50771072  0.35121230     0.65300
H1197       H  0.38337514  0.47959650  0.40090430     0.18200
N1198       N  0.38828392  0.54715969  0.46362266     0.75700
H1199       H  0.41875128  0.57488314  0.41377445     0.09700
C1200       C  0.43125997  0.57657760  0.33612926     0.03400
C1201       C  0.45054505  0.59447798  0.31451280    -0.05300
C1202       C  0.47657420  0.60007443  0.31654728    -0.23700
C1203       C  0.48326048  0.58780436  0.34148520     0.12600
C1204       C  0.46378062  0.56955713  0.36273979    -0.12900
N1205       N  0.40498519  0.57120903  0.33310340     0.64300
H1206       H  0.44493278  0.60363227  0.29558546     0.12100
N1207       N  0.50983267  0.59450611  0.34652947     0.60900
H1208       H  0.46901931  0.56018144  0.38180702     0.08300
O1209       O  0.37359602  0.55661842  0.46125786    -0.40500
O1210       O  0.40086921  0.55017314  0.49010987    -0.39700
O1211       O  0.42757595  0.49706065  0.35435350    -0.39700
O1212       O  0.40279508  0.50603637  0.32395622    -0.37400
O1213       O  0.52462896  0.61358782  0.36498269    -0.38300
O1214       O  0.51712606  0.57901125  0.33721448    -0.34500
O1215       O  0.39866978  0.58635481  0.34642816    -0.35900
O1216       O  0.38943333  0.55395355  0.31300884    -0.40200
C1217       C  0.57489583  0.81074131  0.11319777    -0.13900
C1218       C  0.55730511  0.78365552  0.11129990     0.16500
C1219       C  0.53761886  0.77378216  0.08691715     0.02800
C1220       C  0.53550075  0.79086588  0.06512441    -0.12400
C1221       C  0.55267509  0.81812712  0.06708556    -0.03400
C1222       C  0.57271298  0.82804232  0.09144823     0.02100
C1223       C  0.55749978  0.76593767  0.13698942     0.08900
N1224       N  0.51928880  0.74632828  0.08440129     0.65300
H1225       H  0.52016217  0.78256991  0.04651939     0.18200
N1226       N  0.59019174  0.85555412  0.09549032     0.75700
H1227       H  0.58980584  0.81853275  0.13236673     0.09700
C1228       C  0.57403234  0.75552339  0.13489919     0.03400
C1229       C  0.57185767  0.73706023  0.15840860    -0.05300
C1230       C  0.55337742  0.72878851  0.18429468    -0.23700
C1231       C  0.53763559  0.74026543  0.18697069     0.12600
C1232       C  0.53963395  0.75835219  0.16321461    -0.12900
N1233       N  0.59265126  0.76306139  0.10860541     0.64300
H1234       H  0.58428370  0.72874986  0.15592193     0.12100
N1235       N  0.52004000  0.73440848  0.21418309     0.60900
H1236       H  0.52709715  0.76658342  0.16524342     0.08300
O1237       O  0.61387773  0.86585151  0.08680647    -0.40500
O1238       O  0.58303200  0.86870711  0.11221057    -0.39700
O1239       O  0.49685798  0.73672345  0.09734017    -0.39700
O1240       O  0.52397506  0.73255006  0.06511510    -0.37400
O1241       O  0.52874892  0.74601240  0.24150947    -0.38300
O1242       O  0.49559111  0.72103465  0.20942011    -0.34500
O1243       O  0.61636937  0.78015649  0.11377780    -0.35900
O1244       O  0.58636310  0.74973819  0.08229005    -0.40200
C1245       C  0.57257832  0.76149367  0.35179654    -0.13900
C1246       C  0.55088452  0.75382950  0.37258910     0.16500
C1247       C  0.52918819  0.72814698  0.37006080     0.02800
C1248       C  0.52891611  0.71119020  0.34587731    -0.12400
C1249       C  0.55008383  0.71915044  0.32391270    -0.03400
C1250       C  0.57246551  0.74444628  0.32774387     0.02100
C1251       C  0.54990080  0.77365827  0.39388281     0.08900
N1252       N  0.50717372  0.71905744  0.39178787     0.65300
H1253       H  0.51173176  0.69172519  0.34403018     0.18200
N1254       N  0.59465058  0.75374839  0.30630622     0.75700
H1255       H  0.58925646  0.78130023  0.35313375     0.09700
C1256       C  0.56939243  0.78827719  0.41770399     0.03400
C1257       C  0.56819492  0.80753819  0.43625941    -0.05300
C1258       C  0.54765998  0.81251516  0.43174510    -0.23700
C1259       C  0.52847159  0.79819415  0.40729254     0.12600
C1260       C  0.52980700  0.77908117  0.38869579    -0.12900
N1261       N  0.58984922  0.78297682  0.42436387     0.64300
H1262       H  0.58291659  0.81794632  0.45519706     0.12100
N1263       N  0.50778863  0.80315053  0.40048767     0.60900
H1264       H  0.51519391  0.76862732  0.36965299     0.08300
O1265       O  0.61485462  0.75387246  0.31627920    -0.40500
O1266       O  0.59566062  0.76566463  0.27993273    -0.39700
O1267       O  0.48541894  0.71449074  0.38041411    -0.39700
O1268       O  0.50814468  0.71095552  0.42037943    -0.37400
O1269       O  0.48477036  0.78711301  0.41016258    -0.38300
O1270       O  0.51164374  0.82104265  0.38038906    -0.34500
O1271       O  0.61290373  0.79885871  0.41467480    -0.35900
O1272       O  0.58591057  0.76527378  0.44483120    -0.40200
O1273       O  0.58167536  0.67091541  0.78577504    -0.81300
C1274       C  0.48798037  0.62238921  0.70874590     0.98100
O1275       O  0.49815530  0.61152687  0.72467208    -0.70400
O1276       O  0.54682066  0.62969777  0.70663508    -0.74000
Al1277     Al  0.53049982  0.62461581  0.74814138     1.49000
C1278       C  0.57058015  0.64611501  0.70060662     0.93300
O1279       O  0.56555077  0.69999957  0.71158989    -0.80200
O1280       O  0.52539112  0.68229058  0.79386781    -0.73800
Al1281     Al  0.57144411  0.68375911  0.74876870     1.90100
O1282       O  0.52854977  0.69560679  0.72854817    -0.72900
O1283       O  0.48955970  0.63385189  0.78012713    -0.72700
O1284       O  0.49575110  0.64622413  0.71342159    -0.78400
O1285       O  0.51330078  0.61606598  0.78984315    -0.76600
O1286       O  0.53811555  0.65756305  0.75015831    -1.12700
O1287       O  0.56098313  0.62982951  0.77085112    -0.71900
C1288       C  0.57840394  0.64827927  0.78796065     0.98800
C1289       C  0.54832902  0.70638445  0.70982312     0.95200
Al1290     Al  0.51211016  0.66405173  0.75371084     1.55600
O1291       O  0.58281267  0.66690421  0.71757697    -0.76500
C1292       C  0.49359847  0.61802209  0.79622542     0.99400
C1293       C  0.54808623  0.70165781  0.79882083     0.94300
O1294       O  0.56687077  0.70576726  0.77992141    -0.81800
O1295       O  0.30552174  0.39970261  0.96443129    -0.81300
C1296       C  0.36127836  0.49320326  0.54485545     0.98100
O1297       O  0.37096707  0.48230033  0.52821468    -0.70400
O1298       O  0.34863545  0.43267851  0.54291292    -0.74000
Al1299     Al  0.35278276  0.44924743  0.00338253     1.49000
C1300       C  0.33033468  0.40948735  0.54806968     0.93300
O1301       O  0.28007166  0.41953191  0.53705459    -0.80200
O1302       O  0.29445896  0.45663022  0.95966698    -0.73800
Al1303     Al  0.29594096  0.41367700  0.49941718     1.90100
O1304       O  0.28825314  0.45859596  0.52368500    -0.72900
O1305       O  0.34402155  0.49078506  0.97110133    -0.72700
O1306       O  0.33816339  0.48788562  0.53921212    -0.78400
O1307       O  0.36185174  0.46700415  0.96210583    -0.76600
O1308       O  0.32004769  0.44280839  0.00159911    -1.12700
O1309       O  0.34647911  0.41870963  0.98007393    -0.71900
C1310       C  0.32789287  0.40210117  0.96236722     0.98800
C1311       C  0.27561469  0.43797977  0.54064789     0.95200
Al1312     Al  0.31450411  0.46946412  0.99900410     1.55600
O1313       O  0.31018185  0.39902036  0.52972268    -0.76500
C1314       C  0.35991492  0.48666299  0.95531205     0.99400
C1315       C  0.27464696  0.43414662  0.95555370     0.94300
O1316       O  0.27126768  0.41511949  0.97305224    -0.81800
O1317       O  0.07879304  0.39996528  0.78863156    -0.81300
C1318       C  0.12285922  0.49455788  0.71250356     0.98100
O1319       O  0.10191512  0.48315449  0.72913518    -0.70400
O1320       O  0.07232090  0.43460352  0.70965156    -0.74000
Al1321     Al  0.08323461  0.45008000  0.75127019     1.49000
C1322       C  0.06499173  0.41106486  0.70349595     0.93300
O1323       O  0.12403637  0.41615367  0.71390915    -0.80200
O1324       O  0.14878281  0.45748186  0.79343415    -0.73800
Al1325     Al  0.10193230  0.41047285  0.75118706     1.90100
O1326       O  0.15665802  0.45491936  0.72716952    -0.72900
O1327       O  0.13429127  0.49131596  0.78260600    -0.72700
O1328       O  0.13923263  0.48710903  0.71511298    -0.78400
O1329       O  0.09220415  0.46603962  0.79328329    -0.76600
O1330       O  0.10918989  0.44355368  0.75214476    -1.12700
O1331       O  0.05754817  0.41896090  0.77292313    -0.71900
C1332       C  0.05884429  0.40221255  0.79047511     0.98800
C1333       C  0.14749127  0.43437209  0.70994476     0.95200
Al1334     Al  0.14204765  0.47032875  0.75438962     1.55600
O1335       O  0.07342294  0.39891372  0.72031985    -0.76500
C1336       C  0.11417162  0.48605914  0.79939083     0.99400
C1337       C  0.14432573  0.43483314  0.79976391     0.94300
O1338       O  0.12874118  0.41565818  0.78191986    -0.81800
O1339       O  0.58300865  0.90022773  0.95984533    -0.81300
C1340       C  0.48997455  0.85895629  0.53994839     0.98100
O1341       O  0.50097462  0.87907119  0.52198585    -0.70400
O1342       O  0.54982168  0.90780501  0.53976243    -0.74000
Al1343     Al  0.53244655  0.89685971  0.99542792     1.49000
C1344       C  0.57306912  0.91418627  0.54665033     0.93300
O1345       O  0.56590184  0.85552003  0.53870628    -0.80200
O1346       O  0.52561127  0.82990931  0.95845773    -0.73800
Al1347     Al  0.57177835  0.87592435  0.49983018     1.90100
O1348       O  0.52697521  0.82247984  0.52603674    -0.72900
O1349       O  0.49109831  0.84448461  0.96669261    -0.72700
O1350       O  0.49632209  0.84179975  0.53739806    -0.78400
O1351       O  0.51584765  0.88596445  0.95378390    -0.76600
O1352       O  0.53937846  0.87123154  0.99700526    -1.12700
O1353       O  0.56322148  0.92137507  0.97277891    -0.71900
C1354       C  0.58037932  0.91982490  0.95651490     0.98800
C1355       C  0.54771919  0.83217717  0.54315670     0.95200
Al1356     Al  0.51276155  0.83829070  0.99645958     1.55600
O1357       O  0.58508370  0.90592500  0.52918581    -0.76500
C1358       C  0.49576492  0.86378601  0.94857713     0.99400
C1359       C  0.54825947  0.83350171  0.95417558     0.94300
O1360       O  0.56748946  0.85035341  0.97114351    -0.81800
O1361       O  0.89501991  0.30969356  0.96224141    -0.81300
C1362       C  0.85535009  0.36278208  0.54184048     0.98100
O1363       O  0.87633179  0.37302764  0.52526642    -0.70400
O1364       O  0.90598826  0.35483948  0.54380356    -0.74000
Al1365     Al  0.89466295  0.35710329  0.00167706     1.49000
C1366       C  0.91239747  0.33820446  0.55042470     0.93300
O1367       O  0.85343621  0.28465544  0.54161699    -0.80200
O1368       O  0.82685099  0.29933515  0.96047844    -0.73800
Al1369     Al  0.87481511  0.30004659  0.50354091     1.90100
O1370       O  0.82063377  0.28911070  0.52611970    -0.72900
O1371       O  0.84348212  0.34892537  0.97272567    -0.72700
O1372       O  0.83841845  0.33888106  0.53805326    -0.78400
O1373       O  0.88511539  0.36553873  0.96079398    -0.76600
O1374       O  0.86768814  0.32449295  0.00088691    -1.12700
O1375       O  0.91826031  0.35063105  0.97719236    -0.71900
C1376       C  0.91538975  0.33199387  0.95923352     0.98800
C1377       C  0.82982128  0.27852495  0.54446926     0.95200
Al1378     Al  0.83525430  0.31893797  0.00005689     1.55600
O1379       O  0.90388892  0.31763751  0.53328013    -0.76500
C1380       C  0.86349401  0.36417451  0.95560371     0.99400
C1381       C  0.82880185  0.27950932  0.95524793     0.94300
O1382       O  0.84452366  0.27579637  0.97220867    -0.81800
O1383       O  0.66628873  0.08282875  0.78577794    -0.81300
C1384       C  0.61499464  0.12190357  0.70596692     0.98100
O1385       O  0.60438070  0.10070424  0.72195315    -0.70400
O1386       O  0.62372024  0.07138330  0.70650422    -0.74000
Al1387     Al  0.61823154  0.08341413  0.74719258     1.49000
C1388       C  0.64078586  0.06524588  0.70139370     0.93300
O1389       O  0.69276160  0.12605431  0.70955052    -0.80200
O1390       O  0.67560741  0.14937775  0.79167106    -0.73800
Al1391     Al  0.67791647  0.10485141  0.74777425     1.90100
O1392       O  0.68845727  0.15872783  0.72586893    -0.72900
O1393       O  0.62667891  0.13418003  0.77773762    -0.72700
O1394       O  0.63848764  0.13953513  0.71128847    -0.78400
O1395       O  0.60891245  0.09236964  0.78775403    -0.76600
O1396       O  0.65100294  0.11030335  0.74881111    -1.12700
O1397       O  0.62464222  0.06013221  0.77215191    -0.71900
C1398       C  0.64366951  0.06303339  0.78944917     0.98800
C1399       C  0.69924171  0.14975924  0.70755822     0.95200
Al1400     Al  0.65685655  0.14272279  0.75141560     1.55600
O1401       O  0.66150976  0.07523171  0.71859294    -0.76500
C1402       C  0.61066485  0.11395738  0.79374264     0.99400
C1403       C  0.69573805  0.14770075  0.79576647     0.94300
O1404       O  0.70008958  0.13329791  0.77703442    -0.81800
O1405       O  0.89890241  0.58158103  0.78623431    -0.81300
C1406       C  0.85724389  0.48950412  0.70672371     0.98100
O1407       O  0.87854994  0.50062344  0.72262480    -0.70400
O1408       O  0.90805624  0.55011556  0.70558946    -0.74000
Al1409     Al  0.89665725  0.53279207  0.74682966     1.49000
C1410       C  0.91455939  0.57359630  0.70037940     0.93300
O1411       O  0.85415646  0.56452741  0.71027578    -0.80200
O1412       O  0.83060608  0.52320506  0.79158400    -0.73800
Al1413     Al  0.87612037  0.57100497  0.74817898     1.90100
O1414       O  0.82166293  0.52627163  0.72581794    -0.72900
O1415       O  0.84582819  0.48976311  0.77835121    -0.72700
O1416       O  0.84022779  0.49578977  0.71161924    -0.78400
O1417       O  0.88797039  0.51488128  0.78804163    -0.76600
O1418       O  0.87001398  0.53835063  0.74890587    -1.12700
O1419       O  0.92119503  0.56349913  0.77041756    -0.71900
C1420       C  0.91907542  0.57963270  0.78839265     0.98800
C1421       C  0.83046852  0.54631882  0.70769753     0.95200
Al1422     Al  0.83736782  0.51112736  0.75165496     1.55600
O1423       O  0.90531149  0.58445541  0.71812864    -0.76500
C1424       C  0.86616899  0.49460685  0.79428304     0.99400
C1425       C  0.83272762  0.54521843  0.79555226     0.94300
O1426       O  0.84823210  0.56447670  0.77773351    -0.81800
O1427       O  0.40177695  0.08210618  0.96300615    -0.81300
C1428       C  0.48672194  0.12146644  0.54273995     0.98100
O1429       O  0.47623709  0.10137257  0.52460621    -0.70400
O1430       O  0.42713356  0.07181839  0.54061728    -0.74000
Al1431     Al  0.44848699  0.08557951  0.00892074     1.49000
C1432       C  0.40405103  0.06608473  0.54723814     0.93300
O1433       O  0.41136054  0.12461801  0.53855833    -0.80200
O1434       O  0.45863268  0.15231782  0.96146239    -0.73800
Al1435     Al  0.40591932  0.10416380  0.49999050     1.90100
O1436       O  0.44991612  0.15797897  0.52539929    -0.72900
O1437       O  0.49169402  0.13723917  0.97699890    -0.72700
O1438       O  0.48076789  0.13887723  0.53905883    -0.78400
O1439       O  0.46917537  0.09445800  0.97016983    -0.76600
O1440       O  0.44251332  0.11180580  0.00394759    -1.12700
O1441       O  0.41947727  0.06064839  0.98314413    -0.71900
C1442       C  0.40398735  0.06209704  0.96312480     0.98800
C1443       C  0.42903084  0.14825357  0.54218327     0.95200
Al1444     Al  0.46943457  0.14487397  0.00250639     1.55600
O1445       O  0.39239915  0.07445038  0.52930322    -0.76500
C1446       C  0.48852096  0.11676224  0.96330707     0.99400
C1447       C  0.43627136  0.14863527  0.95462969     0.94300
O1448       O  0.41640180  0.13199873  0.97058549    -0.81800
O1449       O  0.66995122  0.57791016  0.95963608    -0.81300
C1450       C  0.61505744  0.48467038  0.54047345     0.98100
O1451       O  0.60569916  0.49542469  0.52296334    -0.70400
O1452       O  0.62616565  0.54442955  0.54045285    -0.74000
Al1453     Al  0.62205407  0.52848092  0.99793059     1.49000
C1454       C  0.64357431  0.56782361  0.54653206     0.93300
O1455       O  0.69681468  0.56196685  0.53701751    -0.80200
O1456       O  0.67964374  0.51883525  0.95840477    -0.73800
Al1457     Al  0.68068672  0.56719313  0.49902745     1.90100
O1458       O  0.68930143  0.52294383  0.52479446    -0.72900
O1459       O  0.62988226  0.48553152  0.96955474    -0.72700
O1460       O  0.63883940  0.49131501  0.53704640    -0.78400
O1461       O  0.61413351  0.51062098  0.95711270    -0.76600
O1462       O  0.65464000  0.53460895  0.99789979    -1.12700
O1463       O  0.62881290  0.55865542  0.97367658    -0.71900
C1464       C  0.64761438  0.57528205  0.95629654     0.98800
C1465       C  0.70151702  0.54376801  0.54142658     0.95200
Al1466     Al  0.65947123  0.50740925  0.99753019     1.55600
O1467       O  0.66422027  0.57957745  0.52909059    -0.76500
C1468       C  0.61525271  0.49034103  0.95187284     0.99400
C1469       C  0.69890737  0.54118865  0.95183737     0.94300
O1470       O  0.70282516  0.56101553  0.96815596    -0.81800
O1471       O  0.39291897  0.30563761  0.78977162    -0.81300
C1472       C  0.48389523  0.35794773  0.70679322     0.98100
O1473       O  0.47344217  0.36778817  0.72414875    -0.70400
O1474       O  0.42372131  0.34730730  0.70848411    -0.74000
Al1475     Al  0.44139127  0.35286732  0.74913770     1.49000
C1476       C  0.39987289  0.33042064  0.70389977     0.93300
O1477       O  0.40625029  0.27744965  0.71185408    -0.80200
O1478       O  0.45031787  0.29530041  0.79016670    -0.73800
Al1479     Al  0.40174139  0.29335208  0.75059940     1.90100
O1480       O  0.44521310  0.28432010  0.72414708    -0.72900
O1481       O  0.48400113  0.34456831  0.77772943    -0.72700
O1482       O  0.47675784  0.33415774  0.71048799    -0.78400
O1483       O  0.45976079  0.36143308  0.78993681    -0.76600
O1484       O  0.43489497  0.32023990  0.75006276    -1.12700
O1485       O  0.41117531  0.34637850  0.77381569    -0.71900
C1486       C  0.39542351  0.32794329  0.79248583     0.98800
C1487       C  0.42437662  0.27257752  0.70733804     0.95200
Al1488     Al  0.46171008  0.31492396  0.75060069     1.55600
O1489       O  0.38840961  0.30994067  0.72168075    -0.76500
C1490       C  0.47986372  0.35984518  0.79491975     0.99400
C1491       C  0.42815507  0.27537750  0.79583270     0.94300
O1492       O  0.40828172  0.27137677  0.77936649    -0.81800
O1493       O  0.08300559  0.66987317  0.95938273    -0.81300
C1494       C  0.12268915  0.62260579  0.54937393     0.98100
O1495       O  0.10185307  0.61190382  0.53255967    -0.70400
O1496       O  0.07363973  0.63304541  0.54599652    -0.74000
Al1497     Al  0.08354099  0.62438519  0.00279115     1.49000
C1498       C  0.06780579  0.65050486  0.54931140     0.93300
O1499       O  0.12764025  0.70220413  0.53601276    -0.80200
O1500       O  0.15107696  0.67923285  0.95736158    -0.73800
Al1501     Al  0.10604466  0.68422547  0.49905157     1.90100
O1502       O  0.16002352  0.69575089  0.52478766    -0.72900
O1503       O  0.13391547  0.63085931  0.97358405    -0.72700
O1504       O  0.14006553  0.64621469  0.54400231    -0.78400
O1505       O  0.09208529  0.61382273  0.96305504    -0.76600
O1506       O  0.11094757  0.65672196  0.99947827    -1.12700
O1507       O  0.05966169  0.62981867  0.97744489    -0.71900
C1508       C  0.06283865  0.64733424  0.95724911     0.98800
C1509       C  0.15121596  0.70836084  0.53948371     0.95200
Al1510     Al  0.14318366  0.66161400  0.99836984     1.55600
O1511       O  0.07670954  0.66968660  0.52939726    -0.76500
C1512       C  0.11363943  0.61505014  0.95763421     0.99400
C1513       C  0.14856923  0.69828442  0.94949030     0.94300
O1514       O  0.13359285  0.70334127  0.96595816    -0.81800
O1515       O  0.31200255  0.89717385  0.79151559    -0.81300
C1516       C  0.36412939  0.86321101  0.70305054     0.98100
O1517       O  0.37388004  0.88344241  0.72088478    -0.70400
O1518       O  0.35340218  0.91282151  0.70928249    -0.74000
Al1519     Al  0.35921638  0.89893241  0.74824914     1.49000
C1520       C  0.33629487  0.91928629  0.70640015     0.93300
O1521       O  0.28462204  0.85952225  0.71034921    -0.80200
O1522       O  0.30037262  0.82889858  0.78523896    -0.73800
Al1523     Al  0.29977277  0.87780553  0.75064563     1.90100
O1524       O  0.29069906  0.82659065  0.71864266    -0.72900
O1525       O  0.34994304  0.84620724  0.77361992    -0.72700
O1526       O  0.34040098  0.84574834  0.70658025    -0.78400
O1527       O  0.36801813  0.88759471  0.78739792    -0.76600
O1528       O  0.32650006  0.87201787  0.74842193    -1.12700
O1529       O  0.35286363  0.92096316  0.77561948    -0.71900
C1530       C  0.33461034  0.91722314  0.79501245     0.98800
C1531       C  0.27995182  0.83694258  0.70286120     0.95200
Al1532     Al  0.32075245  0.83961843  0.74626392     1.55600
O1533       O  0.31629328  0.90925506  0.72487225    -0.76500
C1534       C  0.36559008  0.86544674  0.79142202     0.99400
C1535       C  0.28034632  0.83042625  0.79066136     0.94300
O1536       O  0.27725138  0.84744607  0.77624048    -0.81800
C1537       C  0.21435589  0.78482339  0.83040256    -0.13900
C1538       C  0.22167280  0.77437258  0.85654555     0.16500
C1539       C  0.24831572  0.78231674  0.86077118     0.02800
C1540       C  0.26717133  0.80076491  0.83924399    -0.12400
C1541       C  0.25994441  0.81149613  0.81331467    -0.03400
C1542       C  0.23317551  0.80307740  0.80860808     0.02100
C1543       C  0.20120403  0.75420046  0.87819518     0.08900
N1544       N  0.25652451  0.77202120  0.88707289     0.65300
H1545       H  0.28761760  0.80686036  0.84299005     0.18200
N1546       N  0.22460148  0.81130281  0.78041912     0.75700
H1547       H  0.19380357  0.77805545  0.82618629     0.09700
C1548       C  0.18439855  0.75932905  0.89700964     0.03400
C1549       C  0.16630018  0.74027479  0.91870647    -0.05300
C1550       C  0.16459368  0.71594063  0.92211119    -0.23700
C1551       C  0.18031681  0.71028253  0.90142676     0.12600
C1552       C  0.19846553  0.72944870  0.87991332    -0.12900
N1553       N  0.18652112  0.78432132  0.89571839     0.64300
H1554       H  0.15440678  0.74511206  0.93407278     0.12100
N1555       N  0.17850322  0.68541335  0.90220421     0.60900
H1556       H  0.21063750  0.72500538  0.86448775     0.08300
O1557       O  0.21558142  0.82623758  0.78423560    -0.40500
O1558       O  0.22248953  0.80067215  0.75261269    -0.39700
O1559       O  0.26440534  0.75646680  0.88054112    -0.39700
O1560       O  0.25984637  0.78160079  0.91580255    -0.37400
O1561       O  0.15936037  0.66595787  0.88839380    -0.38300
O1562       O  0.19808716  0.68401797  0.91125343    -0.34500
O1563       O  0.16923882  0.78680151  0.88079741    -0.35900
O1564       O  0.20338809  0.80283647  0.91335865    -0.40200
C1565       C  0.22282193  0.80854835  0.64173181    -0.13900
C1566       C  0.22439231  0.78751093  0.62884322     0.16500
C1567       C  0.24519255  0.78410612  0.63864949     0.02800
C1568       C  0.26351796  0.80110601  0.66172054    -0.12400
C1569       C  0.26159833  0.82166394  0.67570606    -0.03400
C1570       C  0.24132079  0.82573253  0.66488543     0.02100
C1571       C  0.20458401  0.76924728  0.60484308     0.08900
N1572       N  0.24724049  0.76266891  0.62652357     0.65300
H1573       H  0.27903405  0.79770469  0.66935732     0.18200
N1574       N  0.23874042  0.84662165  0.67782396     0.75700
H1575       H  0.20712237  0.81157903  0.63384157     0.09700
C1576       C  0.17807341  0.75290238  0.61393959     0.03400
C1577       C  0.16048627  0.73374636  0.59182704    -0.05300
C1578       C  0.16902906  0.73066631  0.56067374    -0.23700
C1579       C  0.19509906  0.74828612  0.55071644     0.12600
C1580       C  0.21268762  0.76719524  0.57292392    -0.12900
N1581       N  0.16913690  0.75455859  0.64621473     0.64300
H1582       H  0.14041574  0.72050188  0.59958857     0.12100
N1583       N  0.20358615  0.74796567  0.51762819     0.60900
H1584       H  0.23282962  0.78030039  0.56530247     0.08300
O1585       O  0.22223017  0.84208801  0.70040207    -0.40500
O1586       O  0.25000374  0.86854352  0.66339091    -0.39700
O1587       O  0.26627392  0.76697126  0.60820272    -0.39700
O1588       O  0.23235268  0.73999561  0.63800326    -0.37400
O1589       O  0.19824888  0.75897132  0.49475601    -0.38300
O1590       O  0.22018653  0.74115378  0.51245038    -0.34500
O1591       O  0.15551621  0.76509913  0.64983583    -0.35900
O1592       O  0.17175760  0.74241449  0.67014416    -0.40200
C1593       C  0.51458268  0.40835354  0.86471463    -0.13900
C1594       C  0.54077381  0.41587369  0.85839009     0.16500
C1595       C  0.54647732  0.40353202  0.83279684     0.02800
C1596       C  0.52614010  0.38440468  0.81350084    -0.12400
C1597       C  0.49997652  0.37747641  0.81894015    -0.03400
C1598       C  0.49418071  0.38928754  0.84529049     0.02100
C1599       C  0.56175428  0.43584971  0.87969224     0.08900
N1600       N  0.57295983  0.41125733  0.82498128     0.65300
H1601       H  0.53106007  0.37581522  0.79313473     0.18200
N1602       N  0.46771972  0.38163876  0.85320586     0.75700
H1603       H  0.50995013  0.41717978  0.88508379     0.09700
C1604       C  0.56541220  0.46103103  0.88272834     0.03400
C1605       C  0.58340455  0.47859232  0.90572100    -0.05300
C1606       C  0.59822302  0.47167148  0.92591089    -0.23700
C1607       C  0.59528738  0.44668287  0.92176283     0.12600
C1608       C  0.57707804  0.42907030  0.89884437    -0.12900
N1609       N  0.55112974  0.46910277  0.86234103     0.64300
H1610       H  0.58558604  0.49776382  0.90785725     0.12100
N1611       N  0.60982045  0.43841856  0.94130958     0.60900
H1612       H  0.57424324  0.40961962  0.89680807     0.08300
O1613       O  0.45935275  0.39680574  0.84669403    -0.40500
O1614       O  0.45411049  0.36170243  0.87102829    -0.39700
O1615       O  0.58097788  0.39560456  0.82999196    -0.39700
O1616       O  0.58695850  0.43192178  0.80855825    -0.37400
O1617       O  0.60110527  0.42796438  0.96925075    -0.38300
O1618       O  0.62828042  0.43692577  0.92816473    -0.34500
O1619       O  0.53490456  0.47413576  0.87537236    -0.35900
O1620       O  0.55765064  0.47506103  0.83239166    -0.40200
C1621       C  0.55361531  0.43197425  0.58442430    -0.13900
C1622       C  0.56396688  0.42820218  0.61366063     0.16500
C1623       C  0.59142999  0.44230839  0.61828264     0.02800
C1624       C  0.60794051  0.46021211  0.59398245    -0.12400
C1625       C  0.59753149  0.46430278  0.56484421    -0.03400
C1626       C  0.56997335  0.44962498  0.56008867     0.02100
C1627       C  0.54541376  0.41001641  0.63915724     0.08900
N1628       N  0.60285384  0.43821545  0.64712561     0.65300
H1629       H  0.62895425  0.47114885  0.59810596     0.18200
N1630       N  0.55824051  0.45188908  0.53026016     0.75700
H1631       H  0.53256764  0.42113114  0.58049009     0.09700
C1632       C  0.53975077  0.41957308  0.66796066     0.03400
C1633       C  0.51998905  0.40221357  0.68967619    -0.05300
C1634       C  0.50530082  0.37515054  0.68330326    -0.23700
C1635       C  0.51138219  0.36551876  0.65476725     0.12600
C1636       C  0.53122522  0.38296167  0.63299073    -0.12900
N1637       N  0.55286376  0.44702277  0.67454519     0.64300
H1638       H  0.51583852  0.41011216  0.71149129     0.12100
N1639       N  0.49665337  0.33835146  0.64652082     0.60900
H1640       H  0.53511174  0.37542288  0.61062541     0.08300
O1641       O  0.54543125  0.46345911  0.53072522    -0.40500
O1642       O  0.55739796  0.43910281  0.50487400    -0.39700
O1643       O  0.60545735  0.41850070  0.64851597    -0.39700
O1644       O  0.61497873  0.45659747  0.66762786    -0.37400
O1645       O  0.47559208  0.32944901  0.63030207    -0.38300
O1646       O  0.50659602  0.32426725  0.65090906    -0.34500
O1647       O  0.54459792  0.46060628  0.66118250    -0.35900
O1648       O  0.56870759  0.45638451  0.69852054    -0.40200
C1649       C  0.37107163  0.99436897  0.92403840    -0.13900
C1650       C  0.36438047  0.99923078  0.89270989     0.16500
C1651       C  0.36871602  0.02429596  0.88543693     0.02800
C1652       C  0.38062470  0.04438694  0.90910384    -0.12400
C1653       C  0.38865965  0.03993492  0.93997029    -0.03400
C1654       C  0.38302977  0.01430723  0.94765249     0.02100
C1655       C  0.35602912  0.97876672  0.86694302     0.08900
N1656       N  0.36197498  0.02982440  0.85370592     0.65300
H1657       H  0.38456606  0.06377233  0.90277011     0.18200
N1658       N  0.38929789  0.00809827  0.97932447     0.75700
H1659       H  0.36774621  0.97510823  0.92982920     0.09700
C1660       C  0.37507672  0.97700208  0.84844570     0.03400
C1661       C  0.36748762  0.95659463  0.82592369    -0.05300
C1662       C  0.34089394  0.93737959  0.82107340    -0.23700
C1663       C  0.32173361  0.93893023  0.84010773     0.12600
C1664       C  0.32944799  0.95960361  0.86281653    -0.12900
N1665       N  0.40237977  0.99565038  0.85276102     0.64300
H1666       H  0.38278672  0.95591904  0.81211228     0.12100
N1667       N  0.29450690  0.91983093  0.83672978     0.60900
H1668       H  0.31468898  0.96054353  0.87755020     0.08300
O1669       O  0.41034696  0.00798142  0.98289790    -0.40500
O1670       O  0.37163151  0.99750434  0.00112753    -0.39700
O1671       O  0.34058957  0.02925900  0.85011394    -0.39700
O1672       O  0.37908303  0.03951263  0.83113148    -0.37400
O1673       O  0.28422977  0.89991865  0.85526224    -0.38300
O1674       O  0.28006185  0.92472061  0.81892092    -0.34500
O1675       O  0.41634427  0.98964011  0.86980731    -0.35900
O1676       O  0.41327290  0.01601021  0.83504998    -0.40200
C1677       C  0.33557608  0.97566767  0.66311707    -0.13900
C1678       C  0.35326230  0.98061724  0.63727188     0.16500
C1679       C  0.36345524  0.96406084  0.63275754     0.02800
C1680       C  0.35688354  0.94366302  0.65489590    -0.12400
C1681       C  0.34027215  0.93936435  0.68184612    -0.03400
C1682       C  0.32908494  0.95525803  0.68558509     0.02100
C1683       C  0.36445559  0.00520931  0.61835142     0.08900
N1684       N  0.38152199  0.96854846  0.60656248     0.65300
H1685       H  0.36539352  0.93150073  0.65137268     0.18200
N1686       N  0.31309120  0.95250017  0.71358090     0.75700
H1687       H  0.32814714  0.98870608  0.66713039     0.09700
C1688       C  0.34975419  0.01023275  0.59536066     0.03400
C1689       C  0.36271855  0.03156799  0.57367591    -0.05300
C1690       C  0.39016880  0.04796029  0.57492848    -0.23700
C1691       C  0.40426731  0.04439676  0.60056900     0.12600
C1692       C  0.39128740  0.02311890  0.62190049    -0.12900
N1693       N  0.32203919  0.99307845  0.59252613     0.64300
H1694       H  0.35149813  0.03428550  0.55454676     0.12100
N1695       N  0.43191640  0.06162274  0.60463341     0.60900
H1696       H  0.40245468  0.01993902  0.64067472     0.08300
O1697       O  0.32374798  0.96352178  0.74060989    -0.40500
O1698       O  0.28865682  0.94236171  0.70998809    -0.39700
O1699       O  0.40556618  0.97833169  0.61305551    -0.39700
O1700       O  0.37294982  0.95880330  0.57830454    -0.37400
O1701       O  0.44063529  0.08476577  0.61444947    -0.38300
O1702       O  0.44695712  0.05249988  0.60401461    -0.34500
O1703       O  0.30677469  0.99913172  0.60619049    -0.35900
O1704       O  0.31296040  0.97429397  0.57226620    -0.40200
C1705       C  0.43263337  0.20747976  0.58263582    -0.13900
C1706       C  0.42030022  0.19714844  0.61311857     0.21300
C1707       C  0.40941542  0.17025607  0.61949246     0.02800
C1708       C  0.41188287  0.15436364  0.59584644    -0.12400
C1709       C  0.42522476  0.16497680  0.56586047    -0.03400
C1710       C  0.43505254  0.19169442  0.55900561     0.02100
C1711       C  0.42056410  0.21531811  0.63837621     0.08900
N1712       N  0.39688516  0.15911123  0.65040144     0.65300
H1713       H  0.40404113  0.13384069  0.60137460     0.18200
N1714       N  0.44653848  0.20284345  0.52760410     0.75700
H1715       H  0.44057021  0.22804311  0.57723574     0.09700
C1716       C  0.44450535  0.23465072  0.65213637     0.03400
C1717       C  0.44511408  0.25318302  0.67379231    -0.05300
C1718       C  0.42208164  0.25296050  0.68262430    -0.23700
C1719       C  0.39794490  0.23344588  0.66886471     0.12600
C1720       C  0.39739155  0.21480579  0.64691375    -0.12900
N1721       N  0.46841428  0.23541409  0.64469669     0.64300
H1722       H  0.46393939  0.26782216  0.68388974     0.12100
N1723       N  0.37387568  0.23204019  0.67714072     0.60900
H1724       H  0.37888456  0.20011484  0.63614335     0.08300
O1725       O  0.43206787  0.20222911  0.50426939    -0.40500
O1726       O  0.47110234  0.21747571  0.52520443    -0.39700
O1727       O  0.37218055  0.14690450  0.65226018    -0.39700
O1728       O  0.41001506  0.15737894  0.67382333    -0.37400
O1729       O  0.36473597  0.24225387  0.65809036    -0.38300
O1730       O  0.35976819  0.21707565  0.70019009    -0.34500
O1731       O  0.48470893  0.25250995  0.62498427    -0.35900
O1732       O  0.47514518  0.22213774  0.66195359    -0.40200
C1733       C  0.44960236  0.19676540  0.88430031    -0.13900
C1734       C  0.42859110  0.20103295  0.88815005     0.16500
C1735       C  0.40922400  0.18648717  0.91206417     0.02800
C1736       C  0.41161284  0.16877783  0.93244349    -0.12400
C1737       C  0.43316043  0.16515910  0.92957732    -0.03400
C1738       C  0.45198014  0.17895557  0.90461539     0.02100
C1739       C  0.42707866  0.22047655  0.86665731     0.08900
N1740       N  0.38768317  0.19042853  0.91702943     0.65300
H1741       H  0.39695984  0.15855808  0.95152079     0.18200
N1742       N  0.47298229  0.17435551  0.89867501     0.75700
H1743       H  0.46415708  0.20720293  0.86518871     0.09700
C1744       C  0.44718948  0.24696748  0.86695340     0.03400
C1745       C  0.44657562  0.26455809  0.84451496    -0.05300
C1746       C  0.42617500  0.25633951  0.82126410    -0.23700
C1747       C  0.40559223  0.22983617  0.82155551     0.12600
C1748       C  0.40617490  0.21225300  0.84428524    -0.12900
N1749       N  0.46841675  0.25630222  0.88999556     0.64300
H1750       H  0.46245473  0.28479517  0.84508420     0.12100
N1751       N  0.38496777  0.22001330  0.79755849     0.60900
H1752       H  0.39077995  0.19182081  0.84351574     0.08300
O1753       O  0.46939176  0.15614237  0.87936680    -0.40500
O1754       O  0.48977144  0.18581769  0.40260900    -0.39700
O1755       O  0.36506052  0.17331166  0.90730336    -0.39700
O1756       O  0.39037979  0.20853498  0.93590472    -0.37400
O1757       O  0.38833008  0.21283130  0.76948625    -0.38300
O1758       O  0.36226749  0.21448085  0.80619922    -0.34500
O1759       O  0.49083664  0.26188648  0.87999032    -0.35900
O1760       O  0.46589472  0.26321865  0.91865501    -0.40200
C1761       C  0.00523395  0.60955266  0.89792194    -0.13900
C1762       C  0.00364342  0.62970975  0.88246270     0.16500
C1763       C  0.02179985  0.65582211  0.89108468     0.02800
C1764       C  0.04113243  0.66133857  0.91518910    -0.12400
C1765       C  0.04247380  0.64105902  0.93133038    -0.03400
C1766       C  0.02417352  0.61482985  0.92216450     0.02100
C1767       C  0.98356522  0.62247503  0.85618811     0.08900
N1768       N  0.02093943  0.67686608  0.87538039     0.65300
H1769       H  0.05491271  0.68155411  0.92157947     0.18200
N1770       N  0.02493657  0.59319262  0.93626686     0.75700
H1771       H  0.99160352  0.58940461  0.89096875     0.09700
C1772       C  0.98760619  0.61516641  0.82460222     0.03400
C1773       C  0.96649446  0.60206973  0.80265005    -0.05300
C1774       C  0.94108746  0.59624094  0.81133732    -0.23700
C1775       C  0.93737802  0.60494152  0.84231265     0.12600
C1776       C  0.95856913  0.61782878  0.86451167    -0.12900
N1777       N  0.01286039  0.61976177  0.81525065     0.64300
H1778       H  0.96994252  0.59597593  0.77879921     0.12100
N1779       N  0.91188014  0.59885738  0.85277863     0.60900
H1780       H  0.95515385  0.62285630  0.88907624     0.08300
O1781       O  0.03179898  0.58038509  0.91833385    -0.40500
O1782       O  0.00109337  0.58685296  0.47568829    -0.39700
O1783       O  0.00553145  0.68385497  0.88615437    -0.39700
O1784       O  0.03796637  0.69069012  0.85394340    -0.37400
O1785       O  0.90632440  0.61664371  0.85363788    -0.38300
O1786       O  0.89660392  0.57702631  0.86614575    -0.34500
O1787       O  0.01668456  0.60085409  0.81282732    -0.35900
O1788       O  0.03157615  0.64280858  0.81028951    -0.40200
C1789       C  0.97168497  0.62938372  0.65387870    -0.13900
C1790       C  0.97736639  0.61530176  0.63102836     0.16500
C1791       C  0.96052614  0.58803821  0.62845532     0.02800
C1792       C  0.93935286  0.57500582  0.65016501    -0.12400
C1793       C  0.93445078  0.58873045  0.67460886    -0.03400
C1794       C  0.95039879  0.61637544  0.67568425     0.02100
C1795       C  0.00261505  0.62837474  0.61312598     0.08900
N1796       N  0.96525958  0.57326893  0.60448159     0.65300
H1797       H  0.92712648  0.55389149  0.64844990     0.18200
N1798       N  0.94668797  0.63133145  0.70044672     0.75700
H1799       H  0.98472185  0.65036395  0.65612556     0.09700
C1800       C  0.00768502  0.64599333  0.58696637     0.03400
C1801       C  0.03037838  0.65495133  0.56775649    -0.05300
C1802       C  0.04826898  0.64677055  0.57467584    -0.23700
C1803       C  0.04445989  0.63139901  0.60314447     0.12600
C1804       C  0.02153888  0.62203012  0.62178201    -0.12900
N1805       N  0.98920238  0.65358909  0.57838833     0.64300
H1806       H  0.03310787  0.66694506  0.54614973     0.12100
N1807       N  0.06370465  0.62519270  0.61337412     0.60900
H1808       H  0.01822864  0.60932660  0.64281535     0.08300
O1809       O  0.93657400  0.64475058  0.69259741    -0.40500
O1810       O  0.95711536  0.63432384  0.72863269    -0.39700
O1811       O  0.97329567  0.55834730  0.61376244    -0.39700
O1812       O  0.95792394  0.57231984  0.57487413    -0.37400
O1813       O  0.08373494  0.64196555  0.62904889    -0.38300
O1814       O  0.05883461  0.60197338  0.61131806    -0.34500
O1815       O  0.99289353  0.67536707  0.58807662    -0.35900
O1816       O  0.97167156  0.64059756  0.55711317    -0.40200
C1817       C  0.75784078  0.57067547  0.60459883    -0.13900
C1818       C  0.76081179  0.54893352  0.60876889     0.16500
C1819       C  0.74441909  0.52591705  0.59089625     0.02800
C1820       C  0.72518001  0.52472641  0.56978088    -0.12400
C1821       C  0.72179901  0.54629704  0.56552518    -0.03400
C1822       C  0.73855886  0.56958255  0.58323214     0.02100
C1823       C  0.77911799  0.54936690  0.63420295     0.08900
N1824       N  0.74745473  0.50367237  0.59349485     0.65300
H1825       H  0.71296792  0.50667661  0.55636251     0.18200
N1826       N  0.73624075  0.59220416  0.58008416     0.75700
H1827       H  0.77014817  0.58838858  0.61860766     0.09700
C1828       C  0.80654162  0.56565789  0.63140393     0.03400
C1829       C  0.82301082  0.56498505  0.65592776    -0.05300
C1830       C  0.81256583  0.54804750  0.68333313    -0.23700
C1831       C  0.78491370  0.53219246  0.68634709     0.12600
C1832       C  0.76863402  0.53296796  0.66186752    -0.12900
N1833       N  0.81794316  0.58203185  0.60302263     0.64300
H1834       H  0.84408507  0.57719447  0.65294465     0.12100
N1835       N  0.77290563  0.51557293  0.71444812     0.60900
H1836       H  0.74752604  0.52070656  0.66456527     0.08300
O1837       O  0.75227211  0.61104407  0.56211759    -0.40500
O1838       O  0.72134860  0.59522915  0.59949762    -0.39700
O1839       O  0.72982383  0.48305055  0.60727924    -0.39700
O1840       O  0.76538641  0.50318632  0.57733527    -0.37400
O1841       O  0.76829894  0.52465251  0.74012139    -0.38300
O1842       O  0.76278225  0.49115849  0.71149853    -0.34500
O1843       O  0.82831216  0.60648441  0.60576635    -0.35900
O1844       O  0.82136959  0.57257931  0.57683622    -0.40200
C1845       C  0.73357628  0.52536477  0.88475101    -0.13900
C1846       C  0.75845945  0.54810359  0.88494171     0.16500
C1847       C  0.76265944  0.56960091  0.90427054     0.02800
C1848       C  0.74255690  0.56742660  0.92462637    -0.12400
C1849       C  0.71807670  0.54402253  0.92614928    -0.03400
C1850       C  0.71344251  0.52310773  0.90501844     0.02100
C1851       C  0.77950988  0.54898474  0.86431592     0.08900
N1852       N  0.78760345  0.59331888  0.90469618     0.65300
H1853       H  0.74659579  0.58383623  0.94034082     0.18200
N1854       N  0.68854551  0.49933912  0.90394154     0.75700
H1855       H  0.72977739  0.50913071  0.86882821     0.09700
C1856       C  0.78664837  0.52988585  0.86779635     0.03400
C1857       C  0.80461607  0.52951080  0.84580407    -0.05300
C1858       C  0.81583499  0.54797549  0.82014581    -0.23700
C1859       C  0.80912880  0.56752311  0.81716676     0.12600
C1860       C  0.79111975  0.56784339  0.83922847    -0.12900
N1861       N  0.77570938  0.51066451  0.89352990     0.64300
H1862       H  0.80960150  0.51446816  0.84866710     0.12100
N1863       N  0.81894264  0.58605710  0.79058121     0.60900
H1864       H  0.78528843  0.58220840  0.83579278     0.08300
O1865       O  0.67103559  0.49739661  0.88438361    -0.40500
O1866       O  0.68568954  0.47913005  0.91810015    -0.39700
O1867       O  0.79038659  0.61335402  0.89011909    -0.39700
O1868       O  0.80526468  0.59549068  0.92414290    -0.37400
O1869       O  0.80764018  0.57987830  0.76273708    -0.38300
O1870       O  0.83610983  0.60960235  0.79632705    -0.34500
O1871       O  0.75919328  0.48718979  0.88635907    -0.35900
O1872       O  0.78587370  0.51614699  0.92206033    -0.40200
C1873       C  0.55566132  0.09629133  0.85551369    -0.13900
C1874       C  0.56158153  0.12105399  0.86646849     0.16500
C1875       C  0.58384675  0.14352291  0.85360611     0.02800
C1876       C  0.59931173  0.14071394  0.82966604    -0.12400
C1877       C  0.59356864  0.11583174  0.81897084    -0.03400
C1878       C  0.57141660  0.09343467  0.83231914     0.02100
C1879       C  0.54436094  0.12228881  0.89202942     0.08900
N1880       N  0.59188179  0.16911506  0.86583034     0.65300
H1881       H  0.61643920  0.15817300  0.82017507     0.18200
N1882       N  0.56437613  0.06757982  0.82257938     0.75700
H1883       H  0.53853960  0.07887667  0.86514620     0.09700
C1884       C  0.53114306  0.13614744  0.88720192     0.03400
C1885       C  0.51368573  0.13491153  0.91148965    -0.05300
C1886       C  0.50819573  0.11907373  0.93954192    -0.23700
C1887       C  0.52157884  0.10560081  0.94461290     0.12600
C1888       C  0.53970583  0.10752579  0.92110918    -0.12900
N1889       N  0.53363625  0.14984808  0.85695447     0.64300
H1890       H  0.50331057  0.14526755  0.90764699     0.12100
N1891       N  0.51737529  0.09040361  0.97391011     0.60900
H1892       H  0.54993750  0.09704655  0.92531061     0.08300
O1893       O  0.54967343  0.05723364  0.79775093    -0.40500
O1894       O  0.56787500  0.05336126  0.84261636    -0.39700
O1895       O  0.59973782  0.17492136  0.89539587    -0.39700
O1896       O  0.59606481  0.18712150  0.84572190    -0.37400
O1897       O  0.50344285  0.06578313  0.97257044    -0.38300
O1898       O  0.53060329  0.10123350  0.99967548    -0.34500
O1899       O  0.52544666  0.13719734  0.83019744    -0.35900
O1900       O  0.53890337  0.17324489  0.85796759    -0.40200
C1901       C  0.56347670  0.13380815  0.66989287    -0.13900
C1902       C  0.56280540  0.12619029  0.63681366     0.16500
C1903       C  0.58071518  0.11874234  0.62617474     0.02800
C1904       C  0.59852481  0.11853946  0.64880116    -0.12400
C1905       C  0.59895660  0.12592037  0.68180065    -0.03400
C1906       C  0.58138960  0.13366806  0.69240586     0.02100
C1907       C  0.54259674  0.12503510  0.61410499     0.08900
N1908       N  0.58119285  0.11158504  0.59245162     0.65300
H1909       H  0.61185079  0.11230834  0.64071545     0.18200
N1910       N  0.58114957  0.14074258  0.72622380     0.75700
H1911       H  0.54971311  0.13937693  0.67836365     0.09700
C1912       C  0.52224908  0.10092425  0.60193795     0.03400
C1913       C  0.50462886  0.10051730  0.57864487    -0.05300
C1914       C  0.50595040  0.12366192  0.56802569    -0.23700
C1915       C  0.52587983  0.14778496  0.58101390     0.12600
C1916       C  0.54402567  0.14827065  0.60383865    -0.12900
N1917       N  0.51851582  0.07664959  0.61410076     0.64300
H1918       H  0.48940751  0.08173822  0.56921416     0.12100
N1919       N  0.52891841  0.17196602  0.56990276     0.60900
H1920       H  0.55969239  0.16692782  0.61302888     0.08300
O1921       O  0.56432608  0.12427643  0.74605382    -0.40500
O1922       O  0.59943714  0.16233858  0.73709502    -0.39700
O1923       O  0.59082863  0.12913492  0.57043459    -0.39700
O1924       O  0.57687009  0.08899891  0.58582050    -0.37400
O1925       O  0.52206276  0.18444471  0.58848129    -0.38300
O1926       O  0.54218505  0.18278416  0.54414949    -0.34500
O1927       O  0.51094366  0.06987425  0.64360265    -0.35900
O1928       O  0.51740814  0.05989772  0.59396750    -0.40200
C1929       C  0.72826129  0.19193874  0.87000542    -0.13900
C1930       C  0.75489457  0.20199874  0.86287540     0.16500
C1931       C  0.76171376  0.19206246  0.83541685     0.02800
C1932       C  0.74202227  0.17321143  0.81495744    -0.12400
C1933       C  0.71543177  0.16429403  0.82096493    -0.03400
C1934       C  0.70858209  0.17341058  0.84928133     0.02100
C1935       C  0.77513571  0.22265733  0.88457499     0.08900
N1936       N  0.78855710  0.20204010  0.82684726     0.65300
H1937       H  0.74770192  0.16657767  0.79321586     0.18200
N1938       N  0.68174683  0.16376626  0.85761453     0.75700
H1939       H  0.72268961  0.19861558  0.89179374     0.09700
C1940       C  0.77529044  0.24602019  0.89073649     0.03400
C1941       C  0.79332698  0.26437196  0.91306860    -0.05300
C1942       C  0.81148483  0.26004604  0.92997102    -0.23700
C1943       C  0.81153061  0.23669417  0.92342345     0.12600
C1944       C  0.79349738  0.21837715  0.90082917    -0.12900
N1945       N  0.75721194  0.25143384  0.87443098     0.64300
H1946       H  0.79277656  0.28204320  0.91743446     0.12100
N1947       N  0.82903322  0.23074063  0.94022089     0.60900
H1948       H  0.79326148  0.20025836  0.89682419     0.08300
O1949       O  0.67183430  0.17777339  0.85230269    -0.40500
O1950       O  0.66935611  0.14327964  0.87489469    -0.39700
O1951       O  0.79852959  0.18797284  0.83116013    -0.39700
O1952       O  0.80061164  0.22257142  0.80957747    -0.37400
O1953       O  0.82225118  0.21867647  0.96753713    -0.38300
O1954       O  0.84878017  0.23318933  0.92513691    -0.34500
O1955       O  0.73886772  0.25096853  0.89079016    -0.35900
O1956       O  0.76232452  0.26115174  0.84565316    -0.40200
C1957       C  0.75392731  0.21099912  0.66683406    -0.13900
C1958       C  0.75695364  0.20102202  0.63687822     0.16500
C1959       C  0.74183542  0.17396108  0.63070253     0.02800
C1960       C  0.72346350  0.15734170  0.65429728    -0.12400
C1961       C  0.71983815  0.16742659  0.68398844    -0.03400
C1962       C  0.73570757  0.19452343  0.69043601     0.02100
C1963       C  0.77524486  0.21961504  0.61202695     0.08900
N1964       N  0.74421091  0.16330275  0.60009114     0.65300
H1965       H  0.71146771  0.13661004  0.64894356     0.18200
N1966       N  0.73426685  0.20550483  0.72130792     0.75700
H1967       H  0.76583743  0.23179620  0.67189325     0.09700
C1968       C  0.76899325  0.23638952  0.59529888     0.03400
C1969       C  0.78720978  0.25550927  0.57397769    -0.05300
C1970       C  0.81200461  0.25847243  0.56874817    -0.23700
C1971       C  0.81835061  0.24162097  0.58578783     0.12600
C1972       C  0.79987651  0.22229656  0.60715989    -0.12900
N1973       N  0.74404253  0.23412333  0.59970961     0.64300
H1974       H  0.78174476  0.26812590  0.56143782     0.12100
N1975       N  0.84330829  0.24381195  0.58181034     0.60900
H1976       H  0.80492487  0.20964803  0.62045285     0.08300
O1977       O  0.72441728  0.21988588  0.72228076    -0.40500
O1978       O  0.74696491  0.20475748  0.74595949    -0.39700
O1979       O  0.75652674  0.15124348  0.59926079    -0.39700
O1980       O  0.73047333  0.16211719  0.57551883    -0.37400
O1981       O  0.86117023  0.25640678  0.60287500    -0.38300
O1982       O  0.84598622  0.22965492  0.56081728    -0.34500
O1983       O  0.74199686  0.24977321  0.61876751    -0.35900
O1984       O  0.72537297  0.21969464  0.58046786    -0.40200
C1985       C  0.88122852  0.46363553  0.86679988    -0.13900
C1986       C  0.86425907  0.43694985  0.86006424     0.16500
C1987       C  0.84720640  0.42946589  0.83272791     0.02800
C1988       C  0.84730148  0.44860237  0.81250216    -0.12400
C1989       C  0.86462047  0.47531875  0.81866018    -0.03400
C1990       C  0.88139916  0.48286655  0.84644895     0.02100
C1991       C  0.86316007  0.41713990  0.88317433     0.08900
N1992       N  0.82996419  0.40246981  0.82497621     0.65300
H1993       H  0.83428190  0.44249691  0.79126943     0.18200
N1994       N  0.89749818  0.50986635  0.85526740     0.75700
H1995       H  0.89386372  0.46949281  0.88840506     0.09700
C1996       C  0.87995891  0.40718468  0.87955305     0.03400
C1997       C  0.87939657  0.38952972  0.90299748    -0.05300
C1998       C  0.86207429  0.38136439  0.93011567    -0.23700
C1999       C  0.84473366  0.39091275  0.93315460     0.12600
C2000       C  0.84542397  0.40863749  0.90969371    -0.12900
N2001       N  0.89782760  0.41503163  0.85233196     0.64300
H2002       H  0.89271369  0.38229375  0.90007059     0.12100
N2003       N  0.82749129  0.38413989  0.96094643     0.60900
H2004       H  0.83249032  0.41633161  0.91263326     0.08300
O2005       O  0.92213316  0.52049561  0.85615447    -0.40500
O2006       O  0.88708282  0.52326799  0.86162282    -0.39700
O2007       O  0.80570649  0.39196545  0.83049637    -0.39700
O2008       O  0.83818279  0.39056992  0.80753468    -0.37400
O2009       O  0.83584288  0.39693658  0.98757551    -0.38300
O2010       O  0.80318217  0.36863039  0.95713388    -0.34500
O2011       O  0.92136815  0.43306433  0.85624945    -0.35900
O2012       O  0.89138717  0.40105788  0.82657457    -0.40200
C2013       C  0.83000644  0.38695702  0.61214298    -0.13900
C2014       C  0.84633251  0.41415090  0.60861984     0.16500
C2015       C  0.86487335  0.42416941  0.58278282     0.02800
C2016       C  0.86669271  0.40701597  0.56086922    -0.12400
C2017       C  0.85097621  0.37971057  0.56474823    -0.03400
C2018       C  0.83226373  0.36968389  0.59061787     0.02100
C2019       C  0.84623806  0.43178899  0.63434813     0.08900
N2020       N  0.88345661  0.45160828  0.58014323     0.65300
H2021       H  0.88130268  0.41526368  0.54135628     0.18200
N2022       N  0.81668812  0.34219630  0.59676978     0.75700
H2023       H  0.81614623  0.37911854  0.63251577     0.09700
C2024       C  0.83716730  0.44910755  0.62801453     0.03400
C2025       C  0.84017605  0.46737779  0.65222456    -0.05300
C2026       C  0.85243540  0.46883799  0.68259567    -0.23700
C2027       C  0.86059389  0.45078065  0.68921857     0.12600
C2028       C  0.85735751  0.43246745  0.66518664    -0.12900
N2029       N  0.82474058  0.44822657  0.59729220     0.64300
H2030       H  0.83350623  0.48087858  0.64695038     0.12100
N2031       N  0.87150866  0.45023190  0.72059509     0.60900
H2032       H  0.86420019  0.41908152  0.67033064     0.08300
O2033       O  0.79281995  0.32977775  0.58847890    -0.40500
O2034       O  0.82562228  0.33125637  0.61487797    -0.39700
O2035       O  0.90202140  0.46234612  0.60078145    -0.39700
O2036       O  0.88441939  0.46371276  0.55397063    -0.37400
O2037       O  0.85752826  0.43234789  0.74100102    -0.38300
O2038       O  0.89607579  0.46312003  0.72442086    -0.34500
O2039       O  0.80019169  0.43357878  0.59468090    -0.35900
O2040       O  0.83710970  0.46578008  0.57582377    -0.40200
C2041       C  0.61580361  0.98726723  0.91849793    -0.13900
C2042       C  0.61799541  0.98150550  0.88548006     0.16500
C2043       C  0.61148204  0.95591317  0.87690210     0.02800
C2044       C  0.60116568  0.93609108  0.90108437    -0.12400
C2045       C  0.59678919  0.94147301  0.93354570    -0.03400
C2046       C  0.60507459  0.96757156  0.94244010     0.02100
C2047       C  0.62476001  0.00202383  0.86022008     0.08900
N2048       N  0.61318181  0.94937477  0.84329079     0.65300
H2049       H  0.59476379  0.91615462  0.89388770     0.18200
N2050       N  0.60200742  0.97432867  0.97549490     0.75700
H2051       H  0.62125997  0.00703103  0.92539693     0.09700
C2052       C  0.60777732  0.01159358  0.85451224     0.03400
C2053       C  0.61464999  0.03163354  0.83163286    -0.05300
C2054       C  0.63848811  0.04286401  0.81444054    -0.23700
C2055       C  0.65574296  0.03360204  0.82034862     0.12600
C2056       C  0.64867502  0.01311612  0.84304741    -0.12900
N2057       N  0.58328020  0.00089977  0.87155867     0.64300
H2058       H  0.60117451  0.03848937  0.82722446     0.12100
N2059       N  0.67987524  0.04401506  0.80257717     0.60900
H2060       H  0.66193564  0.00598924  0.84748659     0.08300
O2061       O  0.58135832  0.97425310  0.98308727    -0.40500
O2062       O  0.61450492  0.98289226  0.49246751    -0.39700
O2063       O  0.63152589  0.94581865  0.83463084    -0.39700
O2064       O  0.59448722  0.94362823  0.82355793    -0.37400
O2065       O  0.70096983  0.06126054  0.81589414    -0.38300
O2066       O  0.68069128  0.03308101  0.77619053    -0.34500
O2067       O  0.58078751  0.01380821  0.89457365    -0.35900
O2068       O  0.56312698  0.98133657  0.85958421    -0.40200
C2069       C  0.60914910  0.01535499  0.63260796    -0.13900
C2070       C  0.61840184  0.99846545  0.63986300     0.16500
C2071       C  0.63745434  0.00539230  0.66477916     0.02800
C2072       C  0.64591550  0.02833499  0.68308696    -0.12400
C2073       C  0.63529191  0.04434671  0.67733457    -0.03400
C2074       C  0.61714855  0.03796415  0.65123424     0.02100
C2075       C  0.60762696  0.97381845  0.62089154     0.08900
N2076       N  0.64703020  0.98848925  0.67325696     0.65300
H2077       H  0.65966546  0.03274039  0.70325201     0.18200
N2078       N  0.60660117  0.05415270  0.64333298     0.75700
H2079       H  0.59520584  0.01069105  0.61260918     0.09700
C2080       C  0.58037697  0.95606329  0.62010751     0.03400
C2081       C  0.56988897  0.93572747  0.59717766    -0.05300
C2082       C  0.58601297  0.93255253  0.57454779    -0.23700
C2083       C  0.61353727  0.94892202  0.57728321     0.12600
C2084       C  0.62409878  0.96952291  0.60029609    -0.12900
N2085       N  0.56296614  0.95907125  0.64160960     0.64300
H2086       H  0.54874150  0.92291965  0.59629857     0.12100
N2087       N  0.63091165  0.94598010  0.55568349     0.60900
H2088       H  0.64512338  0.98305413  0.60078899     0.08300
O2089       O  0.58367230  0.04738752  0.65258041    -0.40500
O2090       O  0.61784790  0.07188698  0.62177137    -0.39700
O2091       O  0.67031468  0.99510323  0.66610149    -0.39700
O2092       O  0.63407167  0.96969274  0.69298894    -0.37400
O2093       O  0.63973410  0.96008192  0.53008910    -0.38300
O2094       O  0.64101754  0.93291735  0.56521357    -0.34500
O2095       O  0.54853344  0.96697180  0.62988475    -0.35900
O2096       O  0.55808297  0.94876226  0.67004922    -0.40200
C2097       C  0.41143477  0.87725931  0.86340218    -0.13900
C2098       C  0.42042781  0.86030621  0.85528605     0.16500
C2099       C  0.40974844  0.84361766  0.82775466     0.02800
C2100       C  0.39092042  0.84470474  0.80810590    -0.12400
C2101       C  0.38257785  0.86236259  0.81542727    -0.03400
C2102       C  0.39249185  0.87828094  0.84389216     0.02100
C2103       C  0.44058238  0.85998791  0.87637140     0.08900
N2104       N  0.41885615  0.82647694  0.81853613     0.65300
H2105       H  0.38366820  0.83248093  0.78616767     0.18200
N2106       N  0.38281147  0.89480637  0.85392319     0.75700
H2107       H  0.41900649  0.88957359  0.88523249     0.09700
C2108       C  0.46592825  0.88211932  0.87857847     0.03400
C2109       C  0.48384134  0.88251108  0.90134839    -0.05300
C2110       C  0.47696453  0.86106990  0.92238058    -0.23700
C2111       C  0.45169994  0.83840946  0.91919192     0.12600
C2112       C  0.43384909  0.83809351  0.89619226    -0.12900
N2113       N  0.47366841  0.90439976  0.85785074     0.64300
H2114       H  0.50313763  0.89998753  0.90288739     0.12100
N2115       N  0.44336276  0.81600755  0.93994947     0.60900
H2116       H  0.41425659  0.82102331  0.89468941     0.08300
O2117       O  0.39762436  0.91935122  0.85281528    -0.40500
O2118       O  0.36081010  0.88494761  0.86813223    -0.39700
O2119       O  0.40429764  0.80213413  0.82283892    -0.39700
O2120       O  0.43975361  0.83522458  0.80200846    -0.37400
O2121       O  0.43338106  0.81499749  0.96793501    -0.38300
O2122       O  0.44171301  0.79561815  0.92810214    -0.34500
O2123       O  0.47593053  0.92497552  0.87000413    -0.35900
O2124       O  0.48194811  0.90482613  0.82890679    -0.40200
C2125       C  0.38879626  0.83795734  0.63313994    -0.13900
C2126       C  0.41601150  0.85411393  0.63687961     0.16500
C2127       C  0.42597383  0.87303381  0.66215691     0.02800
C2128       C  0.40872880  0.87573145  0.68306092    -0.12400
C2129       C  0.38134773  0.85980436  0.67935482    -0.03400
C2130       C  0.37141291  0.84056120  0.65411868     0.02100
C2131       C  0.43372191  0.85344371  0.61169091     0.08900
N2132       N  0.45360716  0.89023669  0.66617712     0.65300
H2133       H  0.41694713  0.89044839  0.70238132     0.18200
N2134       N  0.34384354  0.82419639  0.64858452     0.75700
H2135       H  0.38102027  0.82372371  0.61322787     0.09700
C2136       C  0.44731039  0.84011268  0.61694223     0.03400
C2137       C  0.46512019  0.84146248  0.59299026    -0.05300
C2138       C  0.46962201  0.85602429  0.56374564    -0.23700
C2139       C  0.45529132  0.86873934  0.55827393     0.12600
C2140       C  0.43766248  0.86739421  0.58223711    -0.12900
N2141       N  0.44311159  0.82507279  0.64635631     0.64300
H2142       H  0.47581748  0.83151325  0.59758764     0.12100
N2143       N  0.45804656  0.88276595  0.52826379     0.60900
H2144       H  0.42708854  0.87752023  0.57794563     0.08300
O2145       O  0.33242385  0.80025201  0.65612989    -0.40500
O2146       O  0.33193477  0.83256742  0.63135044    -0.39700
O2147       O  0.46449475  0.91306527  0.65429986    -0.39700
O2148       O  0.46598958  0.88446402  0.68654281    -0.37400
O2149       O  0.43662070  0.86063791  0.99706192    -0.38300
O2150       O  0.47184484  0.90742301  0.52804028    -0.34500
O2151       O  0.42507654  0.80133208  0.64689294    -0.35900
O2152       O  0.46031320  0.83379030  0.66885838    -0.40200
C2153       C  0.09956127  0.51598621  0.87242187    -0.13900
C2154       C  0.11480375  0.54260994  0.86433957     0.16500
C2155       C  0.13122538  0.55049223  0.83628906     0.02800
C2156       C  0.13183430  0.53166486  0.81649277    -0.12400
C2157       C  0.11586562  0.50497402  0.82385632    -0.03400
C2158       C  0.09983179  0.49709408  0.85229761     0.02100
C2159       C  0.11462764  0.56199868  0.88662650     0.08900
N2160       N  0.14631151  0.57740367  0.82674341     0.65300
H2161       H  0.14384741  0.53790808  0.79425222     0.18200
N2162       N  0.08437790  0.47012915  0.86148275     0.75700
H2163       H  0.08757963  0.50987037  0.89471065     0.09700
C2164       C  0.09114416  0.56120719  0.89437939     0.03400
C2165       C  0.09162186  0.57868192  0.91745912    -0.05300
C2166       C  0.11477885  0.59720980  0.93322185    -0.23700
C2167       C  0.13845660  0.59792585  0.92531109     0.12600
C2168       C  0.13794432  0.58039684  0.90204742    -0.12900
N2169       N  0.06701641  0.54300927  0.87856453     0.64300
H2170       H  0.07242141  0.57753106  0.92347191     0.12100
N2171       N  0.16291227  0.61567760  0.94098465     0.60900
H2172       H  0.15626479  0.58057813  0.89663397     0.08300
O2173       O  0.05979301  0.45806808  0.85787509    -0.40500
O2174       O  0.09471067  0.45970991  0.87795241    -0.39700
O2175       O  0.17101292  0.58945229  0.82865566    -0.39700
O2176       O  0.13532101  0.58780270  0.81168093    -0.37400
O2177       O  0.16676094  0.61166075  0.97062285    -0.38300
O2178       O  0.18240089  0.63082711  0.92324640    -0.34500
O2179       O  0.04917968  0.52428071  0.89504729    -0.35900
O2180       O  0.06180911  0.54823957  0.85026786    -0.40200
C2181       C  0.11993720  0.56466930  0.59311267    -0.13900
C2182       C  0.13141417  0.57538738  0.62381331     0.16500
C2183       C  0.14065347  0.60210733  0.62989818     0.02800
C2184       C  0.13837323  0.61755134  0.60516590    -0.12400
C2185       C  0.12645183  0.60661843  0.57458735    -0.03400
C2186       C  0.11715777  0.57982398  0.56876368     0.02100
C2187       C  0.13203319  0.55757970  0.64923554     0.08900
N2188       N  0.15250700  0.61385183  0.66088410     0.65300
H2189       H  0.14544903  0.63800122  0.61013686     0.18200
N2190       N  0.10506136  0.56768330  0.53800963     0.75700
H2191       H  0.11257819  0.54414329  0.58822942     0.09700
C2192       C  0.11443185  0.54862079  0.67614450     0.03400
C2193       C  0.11261848  0.52884551  0.69683540    -0.05300
C2194       C  0.12769867  0.51711586  0.69110706    -0.23700
C2195       C  0.14609546  0.52685456  0.66487716     0.12600
C2196       C  0.14799801  0.54681613  0.64418518    -0.12900
N2197       N  0.09682501  0.55796326  0.68133488     0.64300
H2198       H  0.09851895  0.52201894  0.71696603     0.12100
N2199       N  0.16201894  0.51587377  0.65781130     0.60900
H2200       H  0.16142039  0.55336554  0.62332490     0.08300
O2201       O  0.08036544  0.55464288  0.53590742    -0.40500
O2202       O  0.11862273  0.56555137  0.51556056    -0.39700
O2203       O  0.17639587  0.62156539  0.66564251    -0.39700
O2204       O  0.14102934  0.62148972  0.68011039    -0.37400
O2205       O  0.15406769  0.49731087  0.63733762    -0.38300
O2206       O  0.18557706  0.52753490  0.66740980    -0.34500
O2207       O  0.07684962  0.54969579  0.66306228    -0.35900
O2208       O  0.09816521  0.56981440  0.70786516    -0.40200
C2209       C  0.99198083  0.36906480  0.83256357    -0.13900
C2210       C  0.99694263  0.35933694  0.86146210     0.16500
C2211       C  0.02149054  0.36136536  0.86549007     0.02800
C2212       C  0.04116189  0.37438154  0.84144889    -0.12400
C2213       C  0.03679115  0.38567623  0.81338118    -0.03400
C2214       C  0.01149175  0.38211640  0.80860072     0.02100
C2215       C  0.97748200  0.35066444  0.88866995     0.08900
N2216       N  0.02682257  0.35068121  0.89409374     0.65300
H2217       H  0.06021580  0.37651648  0.84543352     0.18200
N2218       N  0.00529740  0.39201886  0.77987015     0.75700
H2219       H  0.97311149  0.36751639  0.82925271     0.09700
C2220       C  0.98000676  0.36867172  0.91302313     0.03400
C2221       C  0.95987373  0.36182259  0.93595058    -0.05300
C2222       C  0.93662604  0.33713399  0.93515316    -0.23700
C2223       C  0.93444220  0.31873925  0.91117134     0.12600
C2224       C  0.95477909  0.32571299  0.88808184    -0.12900
N2225       N  0.00230282  0.39465323  0.91345803     0.64300
H2226       H  0.96233130  0.37637931  0.95401057     0.12100
N2227       N  0.91154005  0.29325163  0.90923781     0.60900
H2228       H  0.95254933  0.31185176  0.86908212     0.08300
O2229       O  0.00687289  0.41394863  0.78128144    -0.40500
O2230       O  0.99297502  0.37673172  0.75620372    -0.39700
O2231       O  0.02396521  0.32820456  0.89248710    -0.39700
O2232       O  0.03916729  0.36539785  0.91819739    -0.37400
O2233       O  0.89324868  0.28915981  0.88962852    -0.38300
O2234       O  0.91156980  0.27411260  0.92264493    -0.34500
O2235       O  0.00208960  0.41228339  0.89631562    -0.35900
O2236       O  0.01996072  0.40090477  0.93499877    -0.40200
C2237       C  0.95862628  0.37108843  0.62208087    -0.13900
C2238       C  0.97657561  0.36286587  0.61660108     0.16500
C2239       C  0.97141487  0.34393548  0.59230512     0.02800
C2240       C  0.94910030  0.33452393  0.57252919    -0.12400
C2241       C  0.93203066  0.34410104  0.57634788    -0.03400
C2242       C  0.93641533  0.36190153  0.60214650     0.02100
C2243       C  0.00084280  0.37463804  0.63612891     0.08900
N2244       N  0.98967509  0.33561903  0.58584985     0.65300
H2245       H  0.94613394  0.32101852  0.55264815     0.18200
N2246       N  0.91861327  0.37088031  0.60826255     0.75700
H2247       H  0.96214360  0.38504610  0.64159522     0.09700
C2248       C  0.01888246  0.40168315  0.63443174     0.03400
C2249       C  0.04070052  0.41281916  0.65509615    -0.05300
C2250       C  0.04469810  0.39748878  0.67808469    -0.23700
C2251       C  0.02705184  0.37014770  0.67895348     0.12600
C2252       C  0.00534977  0.35895656  0.65778948    -0.12900
N2253       N  0.01492780  0.41816263  0.61237773     0.64300
H2254       H  0.05410453  0.43380858  0.65391319     0.12100
N2255       N  0.02972089  0.35379291  0.70268030     0.60900
H2256       H  0.99129543  0.33812603  0.65934436     0.08300
O2257       O  0.92519098  0.39411180  0.60117346    -0.40500
O2258       O  0.89812881  0.35693576  0.62508747    -0.39700
O2259       O  0.98409842  0.31285084  0.59390196    -0.39700
O2260       O  0.00987524  0.34983020  0.56867123    -0.37400
O2261       O  0.02039129  0.35134379  0.73146374    -0.38300
O2262       O  0.03763231  0.33878727  0.69341318    -0.34500
O2263       O  0.00747402  0.43300957  0.62379018    -0.35900
O2264       O  0.02340935  0.42138747  0.58303030    -0.40200
C2265       C  0.35809579  0.32728092  0.87030264    -0.13900
C2266       C  0.35525301  0.34896980  0.86429572     0.16500
C2267       C  0.36438038  0.36253130  0.83398074     0.02800
C2268       C  0.37612427  0.35439139  0.81057802    -0.12400
C2269       C  0.37992056  0.33332342  0.81690264    -0.03400
C2270       C  0.37033069  0.31940290  0.84699107     0.02100
C2271       C  0.34545743  0.35905282  0.89104246     0.08900
N2272       N  0.36398490  0.38598802  0.82774466     0.65300
H2273       H  0.38339204  0.36547775  0.78775462     0.18200
N2274       N  0.37444003  0.29845045  0.85528451     0.75700
H2275       H  0.35157363  0.31695997  0.89373253     0.09700
C2276       C  0.32327372  0.36165801  0.88682837     0.03400
C2277       C  0.31740568  0.37517464  0.91062187    -0.05300
C2278       C  0.33299498  0.38579915  0.93908348    -0.23700
C2279       C  0.35417391  0.38159343  0.94416801     0.12600
C2280       C  0.36026260  0.36856324  0.92015205    -0.12900
N2281       N  0.30624016  0.35019023  0.85893034     0.64300
H2282       H  0.30073303  0.37761263  0.90660420     0.12100
N2283       N  0.36966549  0.39025315  0.97371892     0.60900
H2284       H  0.37717319  0.36645867  0.92389922     0.08300
O2285       O  0.35579016  0.27509130  0.85260425    -0.40500
O2286       O  0.39512743  0.30329351  0.87024558    -0.39700
O2287       O  0.37895357  0.40639741  0.84408463    -0.39700
O2288       O  0.35279212  0.38771441  0.80207445    -0.37400
O2289       O  0.36310661  0.37511105  0.99838866    -0.38300
O2290       O  0.39211753  0.41066414  0.97301836    -0.34500
O2291       O  0.29305780  0.32560687  0.85610141    -0.35900
O2292       O  0.30070000  0.36402385  0.84088847    -0.40200
C2293       C  0.38424260  0.36085707  0.63196362    -0.13900
C2294       C  0.35965822  0.35654875  0.64151642     0.16500
C2295       C  0.34714931  0.34121017  0.66967347     0.02800
C2296       C  0.35968377  0.33090225  0.68836012    -0.12400
C2297       C  0.38490275  0.33626938  0.67973428    -0.03400
C2298       C  0.39696035  0.35094096  0.65081467     0.02100
C2299       C  0.34795574  0.36890827  0.62186251     0.08900
N2300       N  0.32267387  0.33757393  0.68084445     0.65300
H2301       H  0.35045347  0.32021921  0.71095099     0.18200
N2302       N  0.42217832  0.35603838  0.64042850     0.75700
H2303       H  0.39380880  0.37241169  0.61002285     0.09700
C2304       C  0.35785279  0.39592048  0.62453852     0.03400
C2305       C  0.35056726  0.40843446  0.60133030    -0.05300
C2306       C  0.33355901  0.39449374  0.57505707    -0.23700
C2307       C  0.32222727  0.36702705  0.57371230     0.12600
C2308       C  0.32954061  0.35448506  0.59713404    -0.12900
N2309       N  0.37624096  0.41104875  0.64991211     0.64300
H2310       H  0.35895334  0.42940052  0.60330129     0.12100
N2311       N  0.30505195  0.35193378  0.54729393     0.60900
H2312       H  0.32200003  0.33366270  0.59484573     0.08300
O2313       O  0.42392696  0.33914806  0.62359972    -0.40500
O2314       O  0.44202818  0.37867246  0.64369352    -0.39700
O2315       O  0.30212476  0.31534376  0.67861220    -0.39700
O2316       O  0.32232483  0.35530977  0.69752483    -0.37400
O2317       O  0.30936080  0.34581271  0.02477408    -0.38300
O2318       O  0.28073864  0.33778195  0.55262044    -0.34500
O2319       O  0.40024923  0.42529109  0.64284136    -0.35900
O2320       O  0.36802940  0.41347432  0.67774991    -0.40200
C2321       C  0.23897629  0.44490711  0.88542820    -0.13900
C2322       C  0.21274631  0.42813048  0.89483472     0.16500
C2323       C  0.20706704  0.41119211  0.92204377     0.02800
C2324       C  0.22765090  0.41237930  0.94038457    -0.12400
C2325       C  0.25392989  0.43039599  0.93218539    -0.03400
C2326       C  0.25952397  0.44628159  0.90390335     0.02100
C2327       C  0.19193246  0.42858193  0.87523823     0.08900
N2328       N  0.18064349  0.39375895  0.93242160     0.65300
H2329       H  0.22300899  0.40010722  0.96221437     0.18200
N2330       N  0.28592384  0.46359504  0.89337016     0.75700
H2331       H  0.24354329  0.45715535  0.86359454     0.09700
C2332       C  0.19274316  0.45232850  0.86968777     0.03400
C2333       C  0.17634273  0.45358265  0.84597476    -0.05300
C2334       C  0.15860319  0.43137895  0.82763541    -0.23700
C2335       C  0.15622354  0.40704472  0.83533747     0.12600
C2336       C  0.17308026  0.40593850  0.85874082    -0.12900
N2337       N  0.21058317  0.47550963  0.88753035     0.64300
H2338       H  0.17805821  0.47235030  0.84143912     0.12100
N2339       N  0.13746628  0.38345651  0.81902109     0.60900
H2340       H  0.17222870  0.38752576  0.86288221     0.08300
O2341       O  0.29632438  0.48792520  0.89762145    -0.40500
O2342       O  0.29716587  0.45506363  0.87517480    -0.39700
O2343       O  0.17037843  0.36947471  0.92784283    -0.39700
O2344       O  0.16962757  0.40193525  0.95160354    -0.37400
O2345       O  0.14423493  0.37567139  0.79394007    -0.38300
O2346       O  0.11568805  0.36838687  0.83274744    -0.34500
O2347       O  0.22963359  0.49425874  0.87257032    -0.35900
O2348       O  0.20477719  0.47896050  0.91642411    -0.40200
C2349       C  0.23091593  0.45300407  0.59217898    -0.13900
C2350       C  0.21855879  0.43119086  0.61322814     0.16500
C2351       C  0.22373170  0.41076098  0.60879528     0.02800
C2352       C  0.24206388  0.41314955  0.58489140    -0.12400
C2353       C  0.25538774  0.43558669  0.56475971    -0.03400
C2354       C  0.24907416  0.45542692  0.56823746     0.02100
C2355       C  0.20065061  0.43062714  0.63959914     0.08900
N2356       N  0.21112341  0.38779381  0.62897371     0.65300
H2357       H  0.24613055  0.39744439  0.58248215     0.18200
N2358       N  0.26072496  0.47820201  0.54762805     0.75700
H2359       H  0.22643475  0.46844529  0.59436699     0.09700
C2360       C  0.20917119  0.45179353  0.66175567     0.03400
C2361       C  0.19147814  0.45251363  0.68391597    -0.05300
C2362       C  0.16507953  0.43217786  0.68539164    -0.23700
C2363       C  0.15668236  0.41050442  0.66389861     0.12600
C2364       C  0.17438582  0.41005476  0.64110999    -0.12900
N2365       N  0.23598615  0.47258733  0.66249922     0.64300
H2366       H  0.19875248  0.46916922  0.70043454     0.12100
N2367       N  0.13027973  0.38893747  0.66453567     0.60900
H2368       H  0.16735171  0.39383508  0.62393084     0.08300
O2369       O  0.27956738  0.49941895  0.55857630    -0.40500
O2370       O  0.23728106  0.45991215  0.01438722    -0.39700
O2371       O  0.19274757  0.36675645  0.61694620    -0.39700
O2372       O  0.22150327  0.38725176  0.65604052    -0.37400
O2373       O  0.11310276  0.38937957  0.64658201    -0.38300
O2374       O  0.12503550  0.36804625  0.67914165    -0.34500
O2375       O  0.24182541  0.49551707  0.65485770    -0.35900
O2376       O  0.25297998  0.46892988  0.67610794    -0.40200
C2377       C  0.65388337  0.62192969  0.88610345    -0.13900
C2378       C  0.62861934  0.61837933  0.88639618     0.16500
C2379       C  0.61043690  0.60176546  0.91024736     0.02800
C2380       C  0.61744402  0.58871123  0.93301292    -0.12400
C2381       C  0.64243932  0.59137788  0.93245622    -0.03400
C2382       C  0.66096887  0.60866107  0.90890926     0.02100
C2383       C  0.61989671  0.62902430  0.85934741     0.08900
N2384       N  0.58414113  0.59666262  0.91026119     0.65300
H2385       H  0.60273299  0.57575037  0.95070440     0.18200
N2386       N  0.68662983  0.61226342  0.90692626     0.75700
H2387       H  0.66787948  0.63440923  0.86742711     0.09700
C2388       C  0.61830742  0.65167388  0.86340101     0.03400
C2389       C  0.60579061  0.65844026  0.83919161    -0.05300
C2390       C  0.59456887  0.64277347  0.81092913    -0.23700
C2391       C  0.59762727  0.62091920  0.80614669     0.12600
C2392       C  0.61006301  0.61424016  0.83035697    -0.12900
N2393       N  0.62880903  0.66764818  0.89225387     0.64300
H2394       H  0.60393273  0.67541008  0.84321592     0.12100
N2395       N  0.58816913  0.60519986  0.77688993     0.60900
H2396       H  0.61135371  0.59687511  0.82696341     0.08300
O2397       O  0.70582490  0.63238579  0.91953574    -0.40500
O2398       O  0.69077006  0.59808388  0.88765632    -0.39700
O2399       O  0.56692943  0.57830115  0.89274692    -0.39700
O2400       O  0.57724138  0.60740873  0.93163806    -0.37400
O2401       O  0.60243109  0.61184529  0.75133051    -0.38300
O2402       O  0.56795376  0.58265937  0.77842879    -0.34500
O2403       O  0.65078060  0.68858939  0.89052639    -0.35900
O2404       O  0.61407393  0.66383588  0.91677516    -0.40200
C2405       C  0.61238611  0.58186338  0.61893468    -0.13900
C2406       C  0.61974855  0.60789684  0.61234068     0.16500
C2407       C  0.63807093  0.62169603  0.58703122     0.02800
C2408       C  0.64730114  0.60880042  0.56726167    -0.12400
C2409       C  0.63843146  0.58218987  0.57230832    -0.03400
C2410       C  0.62167491  0.56898597  0.59931921     0.02100
C2411       C  0.60766163  0.62001066  0.63187058     0.08900
N2412       N  0.64606254  0.64823920  0.57968801     0.65300
H2413       H  0.66012163  0.61921370  0.54655409     0.18200
N2414       N  0.61415255  0.54261410  0.60724165     0.75700
H2415       H  0.59912840  0.57141521  0.63927346     0.09700
C2416       C  0.58029036  0.60908078  0.63170779     0.03400
C2417       C  0.56884873  0.61887877  0.65299600    -0.05300
C2418       C  0.58418433  0.63953554  0.67495022    -0.23700
C2419       C  0.61180731  0.65121156  0.67409861     0.12600
C2420       C  0.62325641  0.64141423  0.65253119    -0.12900
N2421       N  0.56382434  0.58773099  0.61027781     0.64300
H2422       H  0.54766758  0.60973420  0.65285893     0.12100
N2423       N  0.62840190  0.67179957  0.69638155     0.60900
H2424       H  0.64433754  0.64978750  0.65301929     0.08300
O2425       O  0.59066936  0.52438959  0.60344480    -0.40500
O2426       O  0.63023029  0.53801473  0.62166424    -0.39700
O2427       O  0.66908417  0.66628346  0.58653213    -0.39700
O2428       O  0.63158041  0.65320301  0.56206421    -0.37400
O2429       O  0.63292338  0.66632285  0.72493581    -0.38300
O2430       O  0.64171404  0.69498534  0.68580520    -0.34500
O2431       O  0.54961027  0.56507879  0.62218534    -0.35900
O2432       O  0.56062844  0.59217065  0.58056077    -0.40200
C2433       C  0.44174431  0.59789684  0.63431958    -0.13900
C2434       C  0.42600757  0.57124937  0.64246060     0.16500
C2435       C  0.42933834  0.56243684  0.67346543     0.02800
C2436       C  0.44921225  0.57970837  0.69475669    -0.12400
C2437       C  0.46594148  0.60604483  0.68609493    -0.03400
C2438       C  0.46161634  0.61540033  0.65598878     0.02100
C2439       C  0.40924133  0.55197040  0.61692812     0.08900
N2440       N  0.41301348  0.53570704  0.68325958     0.65300
H2441       H  0.45176018  0.57232565  0.71820023     0.18200
N2442       N  0.47850101  0.64194439  0.64587230     0.75700
H2443       H  0.43962275  0.60480839  0.61030268     0.09700
C2444       C  0.38725301  0.55145053  0.60294989     0.03400
C2445       C  0.37154544  0.53191667  0.57993890    -0.05300
C2446       C  0.37766915  0.51299318  0.57014412    -0.23700
C2447       C  0.40010962  0.51399797  0.58383006     0.12600
C2448       C  0.41554260  0.53335363  0.60684741    -0.12900
N2449       N  0.38044240  0.57034866  0.61220800     0.64300
H2450       H  0.35465757  0.53175608  0.56943588     0.12100
N2451       N  0.40729799  0.49521694  0.57527222     0.60900
H2452       H  0.43267162  0.53381792  0.61706890     0.08300
O2453       O  0.47025477  0.65769188  0.64650213    -0.40500
O2454       O  0.49985986  0.64846838  0.63145612    -0.39700
O2455       O  0.42241773  0.52094199  0.68460743    -0.39700
O2456       O  0.39068026  0.52810799  0.69549948    -0.37400
O2457       O  0.42368137  0.50031303  0.55231938    -0.38300
O2458       O  0.40159300  0.47641386  0.59470705    -0.34500
O2459       O  0.38584002  0.58916959  0.59293497    -0.35900
O2460       O  0.36495720  0.56560882  0.63615495    -0.40200
C2461       C  0.39780107  0.54824748  0.90259497    -0.13900
C2462       C  0.41338450  0.54188824  0.88334122     0.16500
C2463       C  0.41036301  0.51693888  0.88671185     0.02800
C2464       C  0.39262069  0.49919182  0.90988199    -0.12400
C2465       C  0.37723738  0.50558149  0.92967210    -0.03400
C2466       C  0.37969170  0.53038191  0.92541778     0.02100
C2467       C  0.43392224  0.56204154  0.86150844     0.08900
N2468       N  0.42489348  0.50920676  0.86630481     0.65300
H2469       H  0.39085572  0.48021450  0.91224102     0.18200
N2470       N  0.36458482  0.53814204  0.94461764     0.75700
H2471       H  0.40020751  0.56751783  0.90056477     0.09700
C2472       C  0.42776133  0.57469897  0.83668918     0.03400
C2473       C  0.44768898  0.59367603  0.81666234    -0.05300
C2474       C  0.47390887  0.60033907  0.82074830    -0.23700
C2475       C  0.48021189  0.58841521  0.84648632     0.12600
C2476       C  0.46023576  0.56939158  0.86649729    -0.12900
N2477       N  0.40121717  0.56764229  0.83054529     0.64300
H2478       H  0.44239435  0.60246831  0.79689001     0.12100
N2479       N  0.50683248  0.59608198  0.85338413     0.60900
H2480       H  0.46533780  0.56052640  0.88638088     0.08300
O2481       O  0.34499432  0.53768801  0.93172697    -0.40500
O2482       O  0.37319132  0.54935680  0.97217428    -0.39700
O2483       O  0.44107877  0.50409425  0.87933194    -0.39700
O2484       O  0.41895069  0.50403190  0.83608674    -0.37400
O2485       O  0.52107603  0.61654820  0.87000495    -0.38300
O2486       O  0.51484776  0.58058319  0.84723998    -0.34500
O2487       O  0.39389532  0.58362092  0.83719791    -0.35900
O2488       O  0.38643928  0.54743128  0.81378532    -0.40200
C2489       C  0.56749876  0.80822819  0.61930602    -0.13900
C2490       C  0.55549036  0.78140357  0.61237020     0.16500
C2491       C  0.54148101  0.77160819  0.58254214     0.02800
C2492       C  0.53939736  0.78854764  0.56038063    -0.12400
C2493       C  0.55092523  0.81533008  0.56744579    -0.03400
C2494       C  0.56536112  0.82524540  0.59712422     0.02100
C2495       C  0.55527905  0.76340659  0.63790116     0.08900
N2496       N  0.52811893  0.74426309  0.57523347     0.65300
H2497       H  0.52839804  0.78060149  0.53761877     0.18200
N2498       N  0.57647442  0.85211641  0.60607681     0.75700
H2499       H  0.57788073  0.81581794  0.64252800     0.09700
C2500       C  0.57067996  0.75175347  0.63504990     0.03400
C2501       C  0.56844609  0.73348506  0.65884305    -0.05300
C2502       C  0.55103970  0.72659438  0.68574530    -0.23700
C2503       C  0.53605094  0.73887833  0.68876484     0.12600
C2504       C  0.53826145  0.75696131  0.66488616    -0.12900
N2505       N  0.58896894  0.75861874  0.60846611     0.64300
H2506       H  0.58026562  0.72452638  0.65606400     0.12100
N2507       N  0.51875151  0.73359437  0.71616271     0.60900
H2508       H  0.52640885  0.76592707  0.66728982     0.08300
O2509       O  0.60103423  0.86732377  0.60552817    -0.40500
O2510       O  0.56214486  0.85966385  0.61901540    -0.39700
O2511       O  0.50563806  0.72929783  0.58731392    -0.39700
O2512       O  0.53631934  0.73609305  0.55205983    -0.37400
O2513       O  0.52751229  0.74652168  0.74263647    -0.38300
O2514       O  0.49429715  0.71920424  0.71211966    -0.34500
O2515       O  0.61174373  0.77834232  0.61139534    -0.35900
O2516       O  0.58432593  0.74233252  0.58562774    -0.40200
C2517       C  0.57630607  0.76264226  0.85350511    -0.13900
C2518       C  0.55428588  0.75688871  0.87272309     0.16500
C2519       C  0.53143531  0.73203932  0.86986670     0.02800
C2520       C  0.53039793  0.71404047  0.84681111    -0.12400
C2521       C  0.55184451  0.72016738  0.82604799    -0.03400
C2522       C  0.57534319  0.74454946  0.83037488     0.02100
C2523       C  0.55424604  0.77775376  0.89280486     0.08900
N2524       N  0.50888646  0.72496577  0.88988072     0.65300
H2525       H  0.51228057  0.69534222  0.84464546     0.18200
N2526       N  0.59799373  0.75181403  0.81052476     0.75700
H2527       H  0.59397479  0.78174332  0.85537083     0.09700
C2528       C  0.57205634  0.79039325  0.91902238     0.03400
C2529       C  0.57080471  0.80963088  0.93761922    -0.05300
C2530       C  0.55181683  0.81640347  0.93071694    -0.23700
C2531       C  0.53474177  0.80445622  0.90354191     0.12600
C2532       C  0.53614776  0.78541170  0.88491875    -0.12900
N2533       N  0.59046623  0.78283767  0.92824589     0.64300
H2534       H  0.58391122  0.81835426  0.95859109     0.12100
N2535       N  0.51612978  0.81173128  0.89418419     0.60900
H2536       H  0.52297621  0.77651767  0.86403988     0.08300
O2537       O  0.61578213  0.74814305  0.82138050    -0.40500
O2538       O  0.60201503  0.76531035  0.78465252    -0.39700
O2539       O  0.48888673  0.72364798  0.87695337    -0.39700
O2540       O  0.50716580  0.71536438  0.91833319    -0.37400
O2541       O  0.49199692  0.79609102  0.89920814    -0.38300
O2542       O  0.52329521  0.83152672  0.87598986    -0.34500
O2543       O  0.61445731  0.79767688  0.92151392    -0.35900
O2544       O  0.58355892  0.76392970  0.94796412    -0.40200
loop_ 
_geom_bond_atom_site_label_1 
_geom_bond_atom_site_label_2 
_geom_bond_distance 
_geom_bond_site_symmetry_2 
_ccdc_geom_bond_type 
O1           C16   1.262       .  A
O1           Al9   1.918       .  S
C2           O12   1.262       .  A
C2            O3   1.261       .  A
C2         C1165   1.494       .  S
O3           Al5   1.908       .  S
O4            C6   1.262       .  A
O4           Al5   1.879       .  S
Al5          O13   1.895       .  S
Al5          O15   1.907       .  S
Al5          O14   1.777       .  S
C6           O19   1.268       .  A
C6         C1146   1.481       .  S
O7           C17   1.264       .  A
O7           Al9   1.911       .  S
O8           C21   1.260       .  A
O8          Al18   1.887       .  S
Al9          O22   1.922       .  S
Al9          O19   1.937       .  S
Al9          O14   1.788       .  S
O10          C17   1.262       .  A
O10         Al18   1.909       .  S
O11          C20   1.266       .  A
O11         Al18   1.919       .  S
O12         Al18   1.919       .  S
O13          C20   1.262       .  A
O14         Al18   1.781       .  S
O15          C16   1.258       .  A
C16        C1118   1.485       .  S
C17        C1230   1.491       .  S
C20        C1202   1.480       .  S
C21          O22   1.264       .  A
C21        C1249   1.488       .  S
O23          C38   1.265       .  A
O23       Al1303   1.925       .  S
C24          O34   1.262       .  A
C24          O25   1.259       .  A
C24        C1174   1.484       .  S
O25       Al1299   1.907       .  S
O26          C28   1.263       .  A
O26       Al1299   1.890       .  S
Al27         O35   1.895       .  S
Al27         O37   1.901       .  S
Al27       O1297   1.907       .  S
Al27       O1298   1.882       .  S
Al27         O36   1.776       .  S
C28          O41   1.262       .  A
C28        C1034   1.475       .  S
O29          C39   1.263       .  A
O29         Al31   1.908       .  S
O30          C43   1.259       .  A
O30         Al40   1.889       .  S
Al31         O41   1.905       .  S
Al31       O1295   1.920   1_554  S
Al31       O1316   1.900   1_554  S
Al31       O1308   1.790       .  S
O32          C39   1.262       .  A
O32       Al1312   1.906   1_554  S
O33          C42   1.263       .  A
O33         Al40   1.917       .  S
O34       Al1312   1.916   1_554  S
O35          C42   1.262       .  A
O36         Al40   1.785       .  S
O36       Al1303   1.788       .  S
O37          C38   1.259       .  A
C38        C1006   1.496       .  S
C39        C1081   1.490       .  S
Al40       O1304   1.910       .  S
Al40       O1306   1.902       .  S
C42        C1193   1.476       .  S
C43          O44   1.265       .  A
C43        C1053   1.477       .  S
O44       Al1303   1.915       .  S
O45          C60   1.261       .  A
O45         Al53   1.911       .  S
C46          O56   1.260       .  A
C46          O47   1.260       .  A
C46         C922   1.481       .  S
O47         Al49   1.903       .  S
O48          C50   1.261       .  A
O48         Al49   1.871       .  S
Al49         O57   1.886       .  S
Al49         O59   1.898       .  S
Al49         O58   1.773       .  S
C50          O63   1.268       .  A
C50         C978   1.479       .  S
O51          C61   1.261       .  A
O51         Al53   1.900       .  S
O52          C65   1.259       .  A
O52         Al62   1.876       .  S
Al53         O66   1.926       .  S
Al53         O63   1.938       .  S
Al53         O58   1.787       .  S
O54          C61   1.264       .  A
O54         Al62   1.911       .  S
O55          C64   1.266       .  A
O55         Al62   1.925       .  S
O56         Al62   1.908       .  S
O57          C64   1.260       .  A
O58         Al62   1.781       .  S
O59          C60   1.257       .  A
C60         C941   1.483       .  S
C61        C1090   1.491       .  S
C64         C885   1.477       .  S
C65          O66   1.265       .  A
C65        C1062   1.486       .  S
O67          C82   1.263       .  A
O67       Al1347   1.924       .  S
C68          O78   1.263       .  A
C68          O69   1.258       .  A
C68         C866   1.483       .  S
O69       Al1343   1.902   1_554  S
O70          C72   1.262       .  A
O70       Al1343   1.871   1_554  S
Al71         O79   1.882       .  S
Al71         O81   1.896       .  S
Al71       O1341   1.900       .  S
Al71       O1342   1.868       .  S
Al71         O80   1.772       .  S
C72          O85   1.269       .  A
C72         C810   1.484       .  S
O73          C83   1.262       .  A
O73         Al75   1.908   1_554  S
O74          C87   1.260       .  A
O74         Al84   1.888       .  S
Al75         O85   1.941   1_556  S
Al75       O1339   1.922       .  S
Al75       O1360   1.927       .  S
Al75       O1352   1.789       .  S
O76          C83   1.263       .  A
O76       Al1356   1.907   1_554  S
O77          C86   1.268       .  A
O77         Al84   1.934       .  S
O78       Al1356   1.922   1_554  S
O79          C86   1.262       .  A
O80         Al84   1.780       .  S
O80       Al1347   1.786       .  S
O81          C82   1.257       .  A
C82         C773   1.485       .  S
C83        C1221   1.492       .  S
Al84       O1348   1.915       .  S
Al84       O1350   1.915       .  S
C86         C838   1.484       .  S
C87          O88   1.267       .  A
C87        C1258   1.486       .  S
O88       Al1347   1.927       .  S
O89         C104   1.261       .  A
O89       Al1369   1.909       .  S
C90         O100   1.262       .  A
C90          O91   1.262       .  A
C90         C745   1.487       .  S
O91       Al1365   1.914       .  S
O92          C94   1.261       .  A
O92       Al1365   1.881       .  S
Al93        O101   1.887       .  S
Al93        O103   1.908       .  S
Al93       O1363   1.907       .  S
Al93       O1364   1.876       .  S
Al93        O102   1.774       .  S
C94         O107   1.266       .  A
C94         C969   1.476       .  S
O95         C105   1.260       .  A
O95         Al97   1.902       .  S
O96         C109   1.261       .  A
O96        Al106   1.883       .  S
Al97        O107   1.926       .  S
Al97       O1361   1.915   1_554  S
Al97       O1382   1.923   1_554  S
Al97       O1374   1.788       .  S
O98         C105   1.263       .  A
O98       Al1378   1.911       .  S
O99         C108   1.265       .  A
O99        Al106   1.926       .  S
O100      Al1378   1.914       .  S
O101        C108   1.261       .  A
O102       Al106   1.777       .  S
O102      Al1369   1.789       .  S
O103        C104   1.262       .  A
C104        C950   1.489       .  S
C105        C698   1.479       .  S
Al106      O1370   1.902       .  S
Al106      O1372   1.910       .  S
C108        C726   1.483       .  S
C109        O110   1.262       .  A
C109        C670   1.480       .  S
O110      Al1369   1.911       .  S
O111        C126   1.262       .  A
O111       Al119   1.912       .  S
C112        O122   1.258       .  A
C112        O113   1.261       .  A
C112        C633   1.471       .  S
O113       Al115   1.917       .  S
O114        C116   1.261       .  A
O114       Al115   1.886       .  S
Al115       O123   1.894       .  S
Al115       O125   1.912       .  S
Al115       O124   1.776       .  S
C116        O129   1.266       .  A
C116        C801   1.472       .  S
O117        C127   1.261       .  A
O117       Al119   1.897       .  S
O118        C131   1.259       .  A
O118       Al128   1.884       .  S
Al119       O132   1.919       .  S
Al119       O129   1.922       .  S
Al119       O124   1.784       .  S
O120        C127   1.262       .  A
O120       Al128   1.912       .  S
O121        C130   1.266       .  A
O121       Al128   1.920       .  S
O122       Al128   1.902       .  S
O123        C130   1.262       .  A
O124       Al128   1.778       .  S
O125        C126   1.263       .  A
C126        C782   1.492       .  S
C127        C689   1.483       .  S
C130        C605   1.485       .  S
C131        O132   1.264       .  A
C131        C661   1.477       .  S
O133        C148   1.264       .  A
O133       Al141   1.926       .  S
C134        O144   1.261       .  A
C134        O135   1.259       .  A
C134        C754   1.485       .  S
O135       Al137   1.911       .  S
O136        C138   1.263       .  A
O136       Al137   1.889       .  S
Al137       O145   1.894       .  S
Al137       O147   1.905       .  S
Al137       O146   1.780       .  S
C138        O151   1.266       .  A
C138        C521   1.479       .  S
O139        C149   1.264       .  A
O139       Al141   1.917       .  S
O140        C153   1.260       .  A
O140       Al150   1.886       .  S
Al141       O154   1.922       .  S
Al141       O151   1.928       .  S
Al141       O146   1.790       .  S
O142        C149   1.261       .  A
O142       Al150   1.904       .  S
O143        C152   1.265       .  A
O143       Al150   1.913       .  S
O144       Al150   1.914       .  S
O145        C152   1.262       .  A
O146       Al150   1.782       .  S
O147        C148   1.260       .  A
C148        C502   1.493       .  S
C149        C558   1.489       .  S
C152        C717   1.481       .  S
C153        O154   1.263       .  A
C153        C586   1.490       .  S
O155        C170   1.260       .  A
O155      Al1435   1.913       .  S
C156        O166   1.263       .  A
C156        O157   1.255       .  A
C156        C642   1.486       .  S
O157      Al1431   1.879       .  S
O158        C160   1.260       .  A
O158      Al1431   1.889       .  S
Al159       O167   1.896       .  S
Al159       O169   1.911       .  S
Al159      O1429   1.903       .  S
Al159      O1430   1.875       .  S
Al159       O168   1.774       .  S
C160        O173   1.262       .  A
C160        C418   1.470       .  S
O161        C171   1.262       .  A
O161       Al163   1.899       .  S
O162        C175   1.261       .  A
O162       Al172   1.892       .  S
Al163       O173   1.914       .  S
Al163      O1427   1.918   1_554  S
Al163      O1448   1.902   1_554  S
Al163      O1440   1.792       .  S
O164        C171   1.264       .  A
O164      Al1444   1.909       .  S
O165        C174   1.264       .  A
O165       Al172   1.918       .  S
O166      Al1444   1.929       .  S
O167        C174   1.263       .  A
O168       Al172   1.783       .  S
O168      Al1435   1.784       .  S
O169        C170   1.259       .  A
C170        C381   1.478       .  S
C171        C437   1.481       .  S
Al172      O1436   1.916       .  S
Al172      O1438   1.918       .  S
C174        C614   1.473       .  S
C175        O176   1.264       .  A
C175        C465   1.476       .  S
O176      Al1435   1.908       .  S
O177        C192   1.263       .  A
O177      Al1457   1.930       .  S
C178        O188   1.263       .  A
C178        O179   1.259       .  A
C178        C353   1.494       .  S
O179      Al1453   1.907   1_554  S
O180        C182   1.260       .  A
O180      Al1453   1.872   1_554  S
Al181       O189   1.888       .  S
Al181       O191   1.897       .  S
Al181      O1451   1.904       .  S
Al181      O1452   1.883       .  S
Al181       O190   1.777       .  S
C182        O195   1.269       .  A
C182       C1137   1.482       .  S
O183        C193   1.262       .  A
O183       Al185   1.913   1_554  S
O184        C197   1.261       .  A
O184       Al194   1.898       .  S
Al185       O195   1.933   1_556  S
Al185      O1449   1.924       .  S
Al185      O1470   1.914       .  S
Al185      O1462   1.792       .  S
O186        C193   1.262       .  A
O186      Al1466   1.905   1_554  S
O187        C196   1.263       .  A
O187       Al194   1.917       .  S
O188      Al1466   1.921   1_554  S
O189        C196   1.263       .  A
O190       Al194   1.782       .  S
O190      Al1457   1.792       .  S
O191        C192   1.258       .  A
C192       C1109   1.497       .  S
C193        C549   1.495       .  S
Al194      O1458   1.898       .  S
Al194      O1460   1.927       .  S
C196        C334   1.483       .  S
C197        O198   1.264       .  A
C197        C577   1.480       .  S
O198      Al1457   1.915       .  S
O199        C214   1.261       .  A
O199       Al207   1.917       .  S
C200        O210   1.262       .  A
C200        O201   1.264       .  A
C200        C362   1.497       .  S
O201       Al203   1.920       .  S
O202        C204   1.260       .  A
O202       Al203   1.874       .  S
Al203       O211   1.893       .  S
Al203       O213   1.917       .  S
Al203       O212   1.774       .  S
C204        O217   1.266       .  A
C204       C1025   1.471       .  S
O205        C215   1.261       .  A
O205       Al207   1.909       .  S
O206        C219   1.260       .  A
O206       Al216   1.879       .  S
Al207       O220   1.915       .  S
Al207       O217   1.923       .  S
Al207       O212   1.791       .  S
O208        C215   1.261       .  A
O208       Al216   1.894       .  S
O209        C218   1.264       .  A
O209       Al216   1.911       .  S
O210       Al216   1.916       .  S
O211        C218   1.262       .  A
O212       Al216   1.778       .  S
O213        C214   1.262       .  A
C214        C997   1.488       .  S
C215        C446   1.488       .  S
C218        C325   1.474       .  S
C219        O220   1.263       .  A
C219        C474   1.482       .  S
O221        C236   1.261       .  A
O221      Al1501   1.909       .  S
C222        O232   1.261       .  A
C222        O223   1.258       .  A
C222        C913   1.473       .  S
O223      Al1497   1.898       .  S
O224        C226   1.261       .  A
O224      Al1497   1.883       .  S
Al225       O233   1.884       .  S
Al225       O235   1.914       .  S
Al225      O1495   1.909       .  S
Al225      O1496   1.881       .  S
Al225       O234   1.774       .  S
C226        O239   1.268       .  A
C226        C530   1.480       .  S
O227        C237   1.263       .  A
O227       Al229   1.910   1_554  S
O228        C241   1.260       .  A
O228       Al238   1.891       .  S
Al229       O239   1.930   1_556  S
Al229      O1493   1.919       .  S
Al229      O1514   1.915       .  S
Al229      O1506   1.786       .  S
O230        C237   1.259       .  A
O230      Al1510   1.894   1_554  S
O231        C240   1.265       .  A
O231       Al238   1.922       .  S
O232      Al1510   1.912   1_554  S
O233        C240   1.262       .  A
O234       Al238   1.781       .  S
O234      Al1501   1.783       .  S
O235        C236   1.260       .  A
C236        C493   1.494       .  S
C237        C306   1.487       .  S
Al238      O1502   1.912       .  S
Al238      O1504   1.924       .  S
C240        C894   1.481       .  S
C241        O242   1.266       .  A
C241        C278   1.485       .  S
O242      Al1501   1.919       .  S
O243        C258   1.264       .  A
O243       Al251   1.918       .  S
C244        O254   1.259       .  A
C244        O245   1.260       .  A
C244        C857   1.489       .  S
O245       Al247   1.911       .  S
O246        C248   1.261       .  A
O246       Al247   1.886       .  S
Al247       O255   1.897       .  S
Al247       O257   1.904       .  S
Al247       O256   1.779       .  S
C248        O261   1.262       .  A
C248        C409   1.473       .  S
O249        C259   1.261       .  A
O249       Al251   1.899       .  S
O250        C263   1.259       .  A
O250       Al260   1.891       .  S
Al251       O264   1.908       .  S
Al251       O261   1.912       .  S
Al251       O256   1.793       .  S
O252        C259   1.264       .  A
O252       Al260   1.904       .  S
O253        C262   1.265       .  A
O253       Al260   1.911       .  S
O254       Al260   1.906       .  S
O255        C262   1.262       .  A
O256       Al260   1.783       .  S
O257        C258   1.262       .  A
C258        C390   1.491       .  S
C259        C297   1.487       .  S
C262        C829   1.485       .  S
C263        O264   1.261       .  A
C263        C269   1.481       .  S
C265        C266   1.401       .  A
C265        C270   1.399       .  A
C265        H275   1.085       .  S
C266        C271   1.481       .  S
C266        C267   1.409       .  A
C267        C268   1.399       .  A
C267        N272   1.429       .  S
C268        C269   1.404       .  A
C268        H273   1.084       .  S
C269        C270   1.415       .  A
C270        N274   1.430       .  S
C271        C276   1.408       .  A
C271        C280   1.401       .  A
N272        O287   1.262       .  A
N272        O288   1.262       .  A
N274        O285   1.262       .  A
N274        O286   1.262       .  A
C276        C277   1.399       .  A
C276        N281   1.429       .  S
C277        C278   1.406       .  A
C277        H282   1.084       .  S
C278        C279   1.415       .  A
C279        C280   1.400       .  A
C279        N283   1.429       .  S
C280        H284   1.085       .  S
N281        O291   1.262       .  A
N281        O292   1.262       .  A
N283        O289   1.262       .  A
N283        O290   1.261       .  A
C293        C294   1.402       .  A
C293        C298   1.404       .  A
C293        H303   1.084       .  S
C294        C299   1.481       .  S
C294        C295   1.408       .  A
C295        C296   1.395       .  A
C295        N300   1.430       .  S
C296        C297   1.406       .  A
C296        H301   1.084       .  S
C297        C298   1.416       .  A
C298        N302   1.429       .  S
C299        C304   1.409       .  A
C299        C308   1.399       .  A
N300        O315   1.262       .  A
N300        O316   1.262       .  A
N302        O313   1.262       .  A
N302        O314   1.262       .  A
C304        C305   1.404       .  A
C304        N309   1.428       .  S
C305        C306   1.407       .  A
C305        H310   1.084       .  S
C306        C307   1.418       .  A
C307        C308   1.396       .  A
C307        N311   1.430       .  S
C308        H312   1.085       .  S
N309        O319   1.262       .  A
N309        O320   1.262       .  A
N311        O317   1.262       .  A
N311        O318   1.262       .  A
C321        C322   1.404       .  A
C321        C326   1.397       .  A
C321        H331   1.085       .  S
C322        C327   1.480       .  S
C322        C323   1.409       .  A
C323        C324   1.397       .  A
C323        N328   1.430       .  S
C324        C325   1.405       .  A
C324        H329   1.085       .  S
C325        C326   1.409       .  A
C326        N330   1.429       .  S
C327        C332   1.408       .  A
C327        C336   1.401       .  A
N328        O343   1.262       .  A
N328        O344   1.262       .  A
N330        O341   1.262       .  A
N330        O342   1.262       .  A
C332        C333   1.394       .  A
C332        N337   1.429       .  S
C333        C334   1.405       .  A
C333        H338   1.084       .  S
C334        C335   1.418       .  A
C335        C336   1.400       .  A
C335        N339   1.430       .  S
C336        H340   1.084       .  S
N337        O347   1.262       .  A
N337        O348   1.262       .  A
N339        O345   1.262       .  A
N339        O346   1.262       .  A
C349        C350   1.398       .  A
C349        C354   1.398       .  A
C349        H359   1.085       .  S
C350        C355   1.487       .  S
C350        C351   1.410       .  A
C351        C352   1.409       .  A
C351        N356   1.428       .  S
C352        C353   1.408       .  A
C352        H357   1.084       .  S
C353        C354   1.420       .  A
C354        N358   1.430       .  S
C355        C360   1.407       .  A
C355        C364   1.404       .  A
N356        O371   1.262       .  A
N356        O372   1.262       .  A
N358        O369   1.262       .  A
N358        O370   1.262       .  A
C360        C361   1.399       .  A
C360        N365   1.429       .  S
C361        C362   1.409       .  A
C361        H366   1.084       .  S
C362        C363   1.418       .  A
C363        C364   1.410       .  A
C363        N367   1.428       .  S
C364        H368   1.084       .  S
N365        O375   1.262       .  A
N365        O376   1.262       .  A
N367        O373   1.262       .  A
N367        O374   1.262       .  A
C377        C378   1.400   1_565  A
C377        C382   1.399   1_565  A
C377        H387   1.084       .  S
C378        C383   1.483   1_545  S
C378        C379   1.412       .  A
C379        C380   1.405       .  A
C379        N384   1.429       .  S
C380        C381   1.403       .  A
C380        H385   1.084       .  S
C381        C382   1.411       .  A
C382        N386   1.429       .  S
C383        C388   1.406       .  A
C383        C392   1.404       .  A
N384        O399   1.262       .  A
N384        O400   1.262       .  A
N386        O397   1.262   1_545  A
N386        O398   1.262       .  A
C388        C389   1.396       .  A
C388        N393   1.430       .  S
C389        C390   1.408       .  A
C389        H394   1.084       .  S
C390        C391   1.415       .  A
C391        C392   1.408       .  A
C391        N395   1.428       .  S
C392        H396   1.084       .  S
N393        O403   1.262       .  A
N393        O404   1.262   1_565  A
N395        O401   1.262       .  A
N395        O402   1.262       .  A
C405        C406   1.399       .  A
C405        C410   1.399       .  A
C405        H415   1.085       .  S
C406        C411   1.466   1_565  S
C406        C407   1.405       .  A
C407        C408   1.393       .  A
C407        N412   1.429       .  S
C408        C409   1.403       .  A
C408        H413   1.085       .  S
C409        C410   1.415       .  A
C410        N414   1.430       .  S
C411        C416   1.404       .  A
C411        C420   1.399       .  A
N412        O427   1.262       .  A
N412        O428   1.262       .  A
N414        O425   1.262       .  A
N414        O426   1.262       .  A
C416        C417   1.399       .  A
C416        N421   1.429   1_545  S
C417        C418   1.406       .  A
C417        H422   1.084       .  S
C418        C419   1.409       .  A
C419        C420   1.394       .  A
C419        N423   1.429       .  S
C420        H424   1.085       .  S
N421        O431   1.262       .  A
N421        O432   1.262       .  A
N423        O429   1.262       .  A
N423        O430   1.262       .  A
C433        C434   1.400       .  A
C433        C438   1.396       .  A
C433        H443   1.085       .  S
C434        C439   1.479       .  S
C434        C435   1.408       .  A
C435        C436   1.403       .  A
C435        N440   1.428       .  S
C436        C437   1.406       .  A
C436        H441   1.084       .  S
C437        C438   1.414       .  A
C438        N442   1.430       .  S
C439        C444   1.404       .  A
C439        C448   1.404       .  A
N440        O455   1.262       .  A
N440        O456   1.262       .  A
N442        O453   1.262       .  A
N442        O454   1.262       .  A
C444        C445   1.391       .  A
C444        N449   1.429       .  S
C445        C446   1.407       .  A
C445        H450   1.084       .  S
C446        C447   1.417       .  A
C447        C448   1.408       .  A
C447        N451   1.429       .  S
C448        H452   1.084       .  S
N449        O459   1.262       .  A
N449        O460   1.262       .  A
N451        O457   1.262       .  A
N451        O458   1.262       .  A
C461        C462   1.403       .  A
C461        C466   1.398       .  A
C461        H471   1.084       .  S
C462        C467   1.477       .  S
C462        C463   1.407       .  A
C463        C464   1.397       .  A
C463        N468   1.429       .  S
C464        C465   1.406       .  A
C464        H469   1.084       .  S
C465        C466   1.411       .  A
C466        N470   1.429       .  S
C467        C472   1.406       .  A
C467        C476   1.402       .  A
N468        O483   1.262       .  A
N468        O484   1.262       .  A
N470        O481   1.262       .  A
N470       O1754   1.262       .  A
C472        C473   1.394       .  A
C472        N477   1.429       .  S
C473        C474   1.406       .  A
C473        H478   1.084       .  S
C474        C475   1.416       .  A
C475        C476   1.401       .  A
C475        N479   1.429       .  S
C476        H480   1.084       .  S
N477        O487   1.262       .  A
N477        O488   1.262       .  A
N479        O485   1.262       .  A
N479        O486   1.262       .  A
O482       N1742   1.262       .  A
C489        C490   1.398       .  A
C489        C494   1.399       .  A
C489        H499   1.085   1_455  S
C490        C495   1.482   1_455  S
C490        C491   1.408       .  A
C491        C492   1.406       .  A
C491        N496   1.429       .  S
C492        C493   1.410       .  A
C492        H497   1.084       .  S
C493        C494   1.419       .  A
C494        N498   1.429       .  S
C495        C500   1.405       .  A
C495        C504   1.403       .  A
N496        O511   1.262       .  A
N496        O512   1.262       .  A
N498        O509   1.262       .  A
N498       O1782   1.262       .  A
C500        C501   1.399       .  A
C500        N505   1.430   1_655  S
C501        C502   1.410       .  A
C501        H506   1.084       .  S
C502        C503   1.414       .  A
C503        C504   1.408       .  A
C503        N507   1.427       .  S
C504        H508   1.084       .  S
N505        O515   1.262       .  A
N505        O516   1.262       .  A
N507        O513   1.261       .  A
N507        O514   1.262       .  A
O510       N1770   1.262       .  A
C517        C518   1.400       .  A
C517        C522   1.403       .  A
C517        H527   1.084       .  S
C518        C523   1.476   1_655  S
C518        C519   1.407       .  A
C519        C520   1.396       .  A
C519        N524   1.429       .  S
C520        C521   1.403       .  A
C520        H525   1.084       .  S
C521        C522   1.415       .  A
C522        N526   1.429       .  S
C523        C528   1.406       .  A
C523        C532   1.401       .  A
N524        O539   1.262       .  A
N524        O540   1.262       .  A
N526        O537   1.262       .  A
N526        O538   1.262       .  A
C528        C529   1.402       .  A
C528        N533   1.428   1_455  S
C529        C530   1.407       .  A
C529        H534   1.084       .  S
C530        C531   1.412       .  A
C531        C532   1.396       .  A
C531        N535   1.430       .  S
C532        H536   1.085       .  S
N533        O543   1.262       .  A
N533        O544   1.262       .  A
N535        O541   1.262       .  A
N535        O542   1.262       .  A
C545        C546   1.405       .  A
C545        C550   1.408       .  A
C545        H555   1.084       .  S
C546        C551   1.492       .  S
C546        C547   1.410       .  A
C547        C548   1.398       .  A
C547        N552   1.430       .  S
C548        C549   1.407       .  A
C548        H553   1.084       .  S
C549        C550   1.417       .  A
C550        N554   1.428       .  S
C551        C556   1.412       .  A
C551        C560   1.402       .  A
N552        O567   1.262       .  A
N552        O568   1.262       .  A
N554        O565   1.262       .  A
N554        O566   1.262       .  A
C556        C557   1.407       .  A
C556        N561   1.428       .  S
C557        C558   1.406       .  A
C557        H562   1.084       .  S
C558        C559   1.416       .  A
C559        C560   1.399       .  A
C559        N563   1.430       .  S
C560        H564   1.084       .  S
N561        O571   1.262       .  A
N561        O572   1.262       .  A
N563        O569   1.262       .  A
N563        O570   1.262       .  A
C573        C574   1.405       .  A
C573        C578   1.400       .  A
C573        H583   1.083       .  S
C574        C579   1.491       .  S
C574        C575   1.413       .  A
C575        C576   1.402       .  A
C575        N580   1.429       .  S
C576        C577   1.404       .  A
C576        H581   1.084       .  S
C577        C578   1.410       .  A
C578        N582   1.429       .  S
C579        C584   1.412       .  A
C579        C588   1.404       .  A
N580        O595   1.262       .  A
N580        O596   1.262       .  A
N582        O593   1.262       .  A
N582        O594   1.261       .  A
C584        C585   1.398       .  A
C584        N589   1.430       .  S
C585        C586   1.406       .  A
C585        H590   1.084       .  S
C586        C587   1.415       .  A
C587        C588   1.403       .  A
C587        N591   1.428       .  S
C588        H592   1.083       .  S
N589        O599   1.262       .  A
N589        O600   1.262       .  A
N591        O597   1.262       .  A
N591        O598   1.261       .  A
C601        C602   1.401       .  A
C601        C606   1.399       .  A
C601        H611   1.085       .  S
C602        C607   1.478       .  S
C602        C603   1.406       .  A
C603        C604   1.398       .  A
C603        N608   1.429       .  S
C604        C605   1.408       .  A
C604        H609   1.084       .  S
C605        C606   1.415       .  A
C606        N610   1.429       .  S
C607        C612   1.410       .  A
C607        C616   1.400       .  A
N608        O623   1.262       .  A
N608        O624   1.262       .  A
N610        O621   1.262       .  A
N610        O622   1.262       .  A
C612        C613   1.399       .  A
C612        N617   1.429       .  S
C613        C614   1.402       .  A
C613        H618   1.085       .  S
C614        C615   1.413       .  A
C615        C616   1.398       .  A
C615        N619   1.430       .  S
C616        H620   1.085       .  S
N617        O627   1.262       .  A
N617        O628   1.262       .  A
N619        O625   1.262       .  A
N619        O626   1.262       .  A
C629        C630   1.402       .  A
C629        C634   1.399       .  A
C629        H639   1.084       .  S
C630        C635   1.481       .  S
C630        C631   1.411       .  A
C631        C632   1.403       .  A
C631        N636   1.428       .  S
C632        C633   1.401       .  A
C632        H637   1.084       .  S
C633        C634   1.408       .  A
C634        N638   1.430       .  S
C635        C640   1.405       .  A
C635        C644   1.405       .  A
N636        O651   1.262       .  A
N636        O652   1.262       .  A
N638        O649   1.262       .  A
N638        O650   1.262       .  A
C640        C641   1.395       .  A
C640        N645   1.429       .  S
C641        C642   1.407       .  A
C641        H646   1.084       .  S
C642        C643   1.412       .  A
C643        C644   1.409       .  A
C643        N647   1.428       .  S
C644        H648   1.084       .  S
N645        O655   1.262       .  A
N645        O656   1.262       .  A
N647        O653   1.262       .  A
N647        O654   1.262       .  A
C657        C658   1.401       .  A
C657        C662   1.397       .  A
C657        H667   1.085       .  S
C658        C663   1.474       .  S
C658        C659   1.405       .  A
C659        C660   1.399       .  A
C659        N664   1.428       .  S
C660        C661   1.406       .  A
C660        H665   1.084       .  S
C661        C662   1.413       .  A
C662        N666   1.430       .  S
C663        C668   1.405       .  A
C663        C672   1.400       .  A
N664        O679   1.262       .  A
N664        O680   1.262       .  A
N666        O677   1.262       .  A
N666        O678   1.262       .  A
C668        C669   1.393       .  A
C668        N673   1.429       .  S
C669        C670   1.404       .  A
C669        H674   1.084       .  S
C670        C671   1.417       .  A
C671        C672   1.401       .  A
C671        N675   1.430       .  S
C672        H676   1.085       .  S
N673        O683   1.262       .  A
N673        O684   1.262       .  A
N675        O681   1.262       .  A
N675        O682   1.262       .  A
C685        C686   1.402       .  A
C685        C690   1.398       .  A
C685        H695   1.085       .  S
C686        C691   1.484       .  S
C686        C687   1.409       .  A
C687        C688   1.403       .  A
C687        N692   1.428       .  S
C688        C689   1.406       .  A
C688        H693   1.084       .  S
C689        C690   1.414       .  A
C690        N694   1.429       .  S
C691        C696   1.409       .  A
C691        C700   1.405       .  A
N692        O707   1.262       .  A
N692        O708   1.262       .  A
N694        O705   1.262       .  A
N694        O706   1.262       .  A
C696        C697   1.396       .  A
C696        N701   1.429       .  S
C697        C698   1.403       .  A
C697        H702   1.085       .  S
C698        C699   1.412       .  A
C699        C700   1.405       .  A
C699        N703   1.429       .  S
C700        H704   1.084       .  S
N701        O711   1.262       .  A
N701        O712   1.262       .  A
N703        O709   1.262       .  A
N703        O710   1.262       .  A
C713        C714   1.405       .  A
C713        C718   1.403       .  A
C713        H723   1.084       .  S
C714        C719   1.483       .  S
C714        C715   1.408       .  A
C715        C716   1.396       .  A
C715        N720   1.429       .  S
C716        C717   1.406       .  A
C716        H721   1.084       .  S
C717        C718   1.413       .  A
C718        N722   1.432       .  S
C719        C724   1.408       .  A
C719        C728   1.403       .  A
N720        O735   1.262       .  A
N720        O736   1.262       .  A
N722        O733   1.262       .  A
N722        O734   1.263       .  A
C724        C725   1.398       .  A
C724        N729   1.429       .  S
C725        C726   1.406       .  A
C725        H730   1.084       .  S
C726        C727   1.416       .  A
C727        C728   1.400       .  A
C727        N731   1.429       .  S
C728        H732   1.084       .  S
N729        O739   1.262       .  A
N729        O740   1.262       .  A
N731        O737   1.262       .  A
N731        O738   1.262       .  A
C741        C742   1.405       .  A
C741        C746   1.407       .  A
C741        H751   1.084       .  S
C742        C747   1.485       .  S
C742        C743   1.408       .  A
C743        C744   1.399       .  A
C743        N748   1.430       .  S
C744        C745   1.406       .  A
C744        H749   1.084       .  S
C745        C746   1.413       .  A
C746        N750   1.429       .  S
C747        C752   1.411       .  A
C747        C756   1.399       .  A
N748        O763   1.262       .  A
N748        O764   1.262       .  A
N750        O761   1.262       .  A
N750        O762   1.262       .  A
C752        C753   1.406       .  A
C752        N757   1.429       .  S
C753        C754   1.404       .  A
C753        H758   1.084       .  S
C754        C755   1.416       .  A
C755        C756   1.400       .  A
C755        N759   1.430       .  S
C756        H760   1.085       .  S
N757        O767   1.262       .  A
N757        O768   1.262       .  A
N759        O765   1.262       .  A
N759        O766   1.262       .  A
C769        C770   1.397       .  A
C769        C774   1.396       .  A
C769        H779   1.085   1_565  S
C770        C775   1.482       .  S
C770        C771   1.411       .  A
C771        C772   1.407       .  A
C771        N776   1.429       .  S
C772        C773   1.405       .  A
C772        H777   1.084       .  S
C773        C774   1.417       .  A
C774        N778   1.430       .  S
C775        C780   1.407       .  A
C775        C784   1.403   1_565  A
N776        O791   1.262       .  A
N776        O792   1.262       .  A
N778        O789   1.262       .  A
N778       O2062   1.261       .  A
C780        C781   1.398   1_565  A
C780        N785   1.430       .  S
C781        C782   1.409       .  A
C781        H786   1.084       .  S
C782        C783   1.416       .  A
C783        C784   1.406       .  A
C783        N787   1.428       .  S
C784        H788   1.084       .  S
N785        O795   1.262       .  A
N785        O796   1.262       .  A
N787        O793   1.262       .  A
N787        O794   1.262       .  A
O790       N2050   1.261       .  A
C797        C798   1.404       .  A
C797        C802   1.397       .  A
C797        H807   1.085       .  S
C798        C803   1.481   1_545  S
C798        C799   1.409       .  A
C799        C800   1.399       .  A
C799        N804   1.429   1_545  S
C800        C801   1.404       .  A
C800        H805   1.085       .  S
C801        C802   1.410       .  A
C802        N806   1.430       .  S
C803        C808   1.408       .  A
C803        C812   1.404       .  A
N804        O819   1.262       .  A
N804        O820   1.262       .  A
N806        O817   1.262       .  A
N806        O818   1.262       .  A
C808        C809   1.392       .  A
C808        N813   1.430       .  S
C809        C810   1.406       .  A
C809        H814   1.085       .  S
C810        C811   1.415       .  A
C811        C812   1.404       .  A
C811        N815   1.429       .  S
C812        H816   1.084       .  S
N813        O823   1.262       .  A
N813        O824   1.262       .  A
N815        O821   1.262       .  A
N815        O822   1.262       .  A
C825        C826   1.405       .  A
C825        C830   1.401       .  A
C825        H835   1.084       .  S
C826        C831   1.486       .  S
C826        C827   1.409       .  A
C827        C828   1.398       .  A
C827        N832   1.430       .  S
C828        C829   1.407       .  A
C828        H833   1.085       .  S
C829        C830   1.414       .  A
C830        N834   1.430       .  S
C831        C836   1.409       .  A
C831        C840   1.404       .  A
N832        O847   1.262       .  A
N832        O848   1.262       .  A
N834        O845   1.262       .  A
N834        O846   1.262       .  A
C836        C837   1.396       .  A
C836        N841   1.429       .  S
C837        C838   1.405       .  A
C837        H842   1.085       .  S
C838        C839   1.415       .  A
C839        C840   1.401       .  A
C839        N843   1.430       .  S
C840        H844   1.085       .  S
N841        O851   1.262       .  A
N841        O852   1.262       .  A
N843        O849   1.262       .  A
N843        O850   1.262       .  A
C853        C854   1.403       .  A
C853        C858   1.406       .  A
C853        H863   1.084       .  S
C854        C859   1.488       .  S
C854        C855   1.410       .  A
C855        C856   1.400       .  A
C855        N860   1.430       .  S
C856        C857   1.406       .  A
C856        H861   1.084       .  S
C857        C858   1.415       .  A
C858        N862   1.428       .  S
C859        C864   1.412       .  A
C859        C868   1.401       .  A
N860        O875   1.262       .  A
N860        O876   1.262       .  A
N862        O873   1.262       .  A
N862        O874   1.262       .  A
C864        C865   1.406       .  A
C864        N869   1.428       .  S
C865        C866   1.403       .  A
C865        H870   1.084       .  S
C866        C867   1.416       .  A
C867        C868   1.398       .  A
C867        N871   1.430       .  S
C868        H872   1.085       .  S
N869        O879   1.262       .  A
N869        O880   1.262       .  A
N871        O878   1.262       .  A
N871       O2149   1.261   1_554  A
O877       N2143   1.262       .  A
C881        C882   1.402       .  A
C881        C886   1.397       .  A
C881        H891   1.085       .  S
C882        C887   1.478       .  S
C882        C883   1.408       .  A
C883        C884   1.398       .  A
C883        N888   1.429       .  S
C884        C885   1.405       .  A
C884        H889   1.085       .  S
C885        C886   1.413       .  A
C886        N890   1.430       .  S
C887        C892   1.408       .  A
C887        C896   1.401       .  A
N888        O903   1.262       .  A
N888        O904   1.262       .  A
N890        O901   1.262       .  A
N890        O902   1.262       .  A
C892        C893   1.395       .  A
C892        N897   1.429       .  S
C893        C894   1.405       .  A
C893        H898   1.084       .  S
C894        C895   1.416       .  A
C895        C896   1.399       .  A
C895        N899   1.430       .  S
C896        H900   1.084       .  S
N897        O907   1.262       .  A
N897        O908   1.262       .  A
N899        O905   1.261       .  A
N899        O906   1.261       .  A
C909        C910   1.399       .  A
C909        C914   1.394       .  A
C909        H919   1.085       .  S
C910        C915   1.479       .  S
C910        C911   1.411       .  A
C911        C912   1.404       .  A
C911        N916   1.428       .  S
C912        C913   1.402       .  A
C912        H917   1.084       .  S
C913        C914   1.413       .  A
C914        N918   1.430       .  S
C915        C920   1.408       .  A
C915        C924   1.403       .  A
N916        O931   1.262       .  A
N916        O932   1.262       .  A
N918        O929   1.262       .  A
N918        O930   1.261       .  A
C920        C921   1.395       .  A
C920        N925   1.430       .  S
C921        C922   1.405       .  A
C921        H926   1.085       .  S
C922        C923   1.414       .  A
C923        C924   1.405       .  A
C923        N927   1.428       .  S
C924        H928   1.085       .  S
N925        O935   1.262       .  A
N925        O936   1.262       .  A
N927        O933   1.262       .  A
N927        O934   1.262       .  A
C937        C938   1.397       .  A
C937        C942   1.396   1_655  A
C937        H947   1.084       .  S
C938        C943   1.477       .  S
C938        C939   1.408   1_655  A
C939        C940   1.404       .  A
C939        N944   1.428       .  S
C940        C941   1.405       .  A
C940        H945   1.084       .  S
C941        C942   1.418       .  A
C942        N946   1.430       .  S
C943        C948   1.405       .  A
C943        C952   1.402       .  A
N944        O959   1.262       .  A
N944        O960   1.261       .  A
N946        O957   1.262       .  A
N946        O958   1.262   1_455  A
C948        C949   1.396       .  A
C948        N953   1.430   1_655  S
C949        C950   1.408       .  A
C949        H954   1.084       .  S
C950        C951   1.416       .  A
C951        C952   1.405       .  A
C951        N955   1.429       .  S
C952        H956   1.084       .  S
N953        O963   1.262       .  A
N953        O964   1.261       .  A
N955        O961   1.262       .  A
N955        O962   1.262       .  A
C965        C966   1.401       .  A
C965        C970   1.395       .  A
C965        H975   1.085       .  S
C966        C971   1.476       .  S
C966        C967   1.407       .  A
C967        C968   1.400       .  A
C967        N972   1.428       .  S
C968        C969   1.406       .  A
C968        H973   1.084       .  S
C969        C970   1.412       .  A
C970        N974   1.430       .  S
C971        C976   1.407   1_655  A
C971        C980   1.402   1_655  A
N972        O987   1.262       .  A
N972        O988   1.262   1_655  A
N974        O985   1.262       .  A
N974        O986   1.262       .  A
C976        C977   1.392       .  A
C976        N981   1.430       .  S
C977        C978   1.404       .  A
C977        H982   1.085       .  S
C978        C979   1.415       .  A
C979        C980   1.403       .  A
C979        N983   1.429       .  S
C980        H984   1.084   1_455  S
N981        O991   1.262       .  A
N981        O992   1.262       .  A
N983        O989   1.262       .  A
N983        O990   1.262       .  A
C993        C994   1.407       .  A
C993        C998   1.407       .  A
C993       H1003   1.084       .  S
C994        C999   1.491       .  S
C994        C995   1.411       .  A
C995        C996   1.402       .  A
C995       N1000   1.430       .  S
C996        C997   1.406       .  A
C996       H1001   1.084       .  S
C997        C998   1.412       .  A
C998       N1002   1.429       .  S
C999       C1004   1.413       .  A
C999       C1008   1.398       .  A
N1000      O1015   1.262       .  A
N1000      O1016   1.262       .  A
N1002      O1013   1.262       .  A
N1002      O1014   1.262       .  A
C1004      C1005   1.410       .  A
C1004      N1009   1.430       .  S
C1005      C1006   1.408       .  A
C1005      H1010   1.084       .  S
C1006      C1007   1.420       .  A
C1007      C1008   1.398       .  A
C1007      N1011   1.429       .  S
C1008      H1012   1.085       .  S
N1009      O1019   1.262       .  A
N1009      O1020   1.262       .  A
N1011      O1017   1.262       .  A
N1011      O1018   1.262       .  A
C1021      C1022   1.400       .  A
C1021      C1026   1.392       .  A
C1021      H1031   1.085       .  S
C1022      C1027   1.471       .  S
C1022      C1023   1.407       .  A
C1023      C1024   1.399       .  A
C1023      N1028   1.429       .  S
C1024      C1025   1.405       .  A
C1024      H1029   1.084       .  S
C1025      C1026   1.410       .  A
C1026      N1030   1.430       .  S
C1027      C1032   1.409       .  A
C1027      C1036   1.398       .  A
N1028      O1043   1.262       .  A
N1028      O1044   1.262       .  A
N1030      O1041   1.262       .  A
N1030      O1042   1.262       .  A
C1032      C1033   1.394       .  A
C1032      N1037   1.430       .  S
C1033      C1034   1.402       .  A
C1033      H1038   1.084       .  S
C1034      C1035   1.417       .  A
C1035      C1036   1.398       .  A
C1035      N1039   1.429       .  S
C1036      H1040   1.084       .  S
N1037      O1047   1.262       .  A
N1037      O1048   1.262       .  A
N1039      O1046   1.262       .  A
N1039      O2317   1.262       .  A
O1045      N2311   1.262       .  A
C1049      C1050   1.405       .  A
C1049      C1054   1.401       .  A
C1049      H1059   1.084       .  S
C1050      C1055   1.483       .  S
C1050      C1051   1.409       .  A
C1051      C1052   1.397       .  A
C1051      N1056   1.429       .  S
C1052      C1053   1.404       .  A
C1052      H1057   1.085       .  S
C1053      C1054   1.412       .  A
C1054      N1058   1.430       .  S
C1055      C1060   1.408       .  A
C1055      C1064   1.403       .  A
N1056      O1071   1.262       .  A
N1056      O1072   1.262       .  A
N1058      O1069   1.262       .  A
N1058      O1070   1.262       .  A
C1060      C1061   1.397       .  A
C1060      N1065   1.430       .  S
C1061      C1062   1.408       .  A
C1061      H1066   1.084       .  S
C1062      C1063   1.414       .  A
C1063      C1064   1.400       .  A
C1063      N1067   1.428       .  S
C1064      H1068   1.084       .  S
N1065      O1075   1.262       .  A
N1065      O1076   1.262       .  A
N1067      O1073   1.262       .  A
N1067      O1074   1.262       .  A
C1077      C1078   1.399       .  A
C1077      C1082   1.397       .  A
C1077      H1087   1.085       .  S
C1078      C1083   1.484       .  S
C1078      C1079   1.409       .  A
C1079      C1080   1.406       .  A
C1079      N1084   1.428       .  S
C1080      C1081   1.408       .  A
C1080      H1085   1.084       .  S
C1081      C1082   1.417       .  A
C1082      N1086   1.430       .  S
C1083      C1088   1.408       .  A
C1083      C1092   1.403       .  A
N1084      O1099   1.262       .  A
N1084      O1100   1.262       .  A
N1086      O1097   1.262       .  A
N1086      O2370   1.262       .  A
C1088      C1089   1.397       .  A
C1088      N1093   1.430       .  S
C1089      C1090   1.407       .  A
C1089      H1094   1.084       .  S
C1090      C1091   1.418       .  A
C1091      C1092   1.406       .  A
C1091      N1095   1.429       .  S
C1092      H1096   1.084       .  S
N1093      O1103   1.262       .  A
N1093      O1104   1.262       .  A
N1095      O1101   1.262       .  A
N1095      O1102   1.262       .  A
O1098      N2358   1.262       .  A
C1105      C1106   1.405       .  A
C1105      C1110   1.410       .  A
C1105      H1115   1.084       .  S
C1106      C1111   1.484       .  S
C1106      C1107   1.405       .  A
C1107      C1108   1.398       .  A
C1107      N1112   1.430       .  S
C1108      C1109   1.411       .  A
C1108      H1113   1.084       .  S
C1109      C1110   1.416       .  A
C1110      N1114   1.428       .  S
C1111      C1116   1.410       .  A
C1111      C1120   1.399       .  A
N1112      O1127   1.262       .  A
N1112      O1128   1.262       .  A
N1114      O1125   1.262       .  A
N1114      O1126   1.262       .  A
C1116      C1117   1.405       .  A
C1116      N1121   1.428       .  S
C1117      C1118   1.405       .  A
C1117      H1122   1.084       .  S
C1118      C1119   1.418       .  A
C1119      C1120   1.401       .  A
C1119      N1123   1.431       .  S
C1120      H1124   1.084       .  S
N1121      O1131   1.262       .  A
N1121      O1132   1.262       .  A
N1123      O1129   1.262       .  A
N1123      O1130   1.262       .  A
C1133      C1134   1.402       .  A
C1133      C1138   1.395       .  A
C1133      H1143   1.085       .  S
C1134      C1139   1.484       .  S
C1134      C1135   1.409       .  A
C1135      C1136   1.402       .  A
C1135      N1140   1.428       .  S
C1136      C1137   1.407       .  A
C1136      H1141   1.084       .  S
C1137      C1138   1.415       .  A
C1138      N1142   1.430       .  S
C1139      C1144   1.411       .  A
C1139      C1148   1.404       .  A
N1140      O1155   1.262       .  A
N1140      O1156   1.262       .  A
N1142      O1153   1.262       .  A
N1142      O1154   1.262       .  A
C1144      C1145   1.394       .  A
C1144      N1149   1.430       .  S
C1145      C1146   1.403       .  A
C1145      H1150   1.085       .  S
C1146      C1147   1.414       .  A
C1147      C1148   1.403       .  A
C1147      N1151   1.429       .  S
C1148      H1152   1.084       .  S
N1149      O1159   1.262       .  A
N1149      O1160   1.262       .  A
N1151      O1157   1.261       .  A
N1151      O1158   1.262       .  A
C1161      C1162   1.404       .  A
C1161      C1166   1.409       .  A
C1161      H1171   1.084       .  S
C1162      C1167   1.482       .  S
C1162      C1163   1.404       .  A
C1163      C1164   1.397       .  A
C1163      N1168   1.429       .  S
C1164      C1165   1.409       .  A
C1164      H1169   1.084       .  S
C1165      C1166   1.417       .  A
C1166      N1170   1.429       .  S
C1167      C1172   1.410       .  A
C1167      C1176   1.399       .  A
N1168      O1183   1.262       .  A
N1168      O1184   1.262       .  A
N1170      O1181   1.262       .  A
N1170      O1182   1.262       .  A
C1172      C1173   1.406       .  A
C1172      N1177   1.428       .  S
C1173      C1174   1.405       .  A
C1173      H1178   1.084       .  S
C1174      C1175   1.416       .  A
C1175      C1176   1.399       .  A
C1175      N1179   1.430       .  S
C1176      H1180   1.084       .  S
N1177      O1187   1.262       .  A
N1177      O1188   1.262       .  A
N1179      O1185   1.261       .  A
N1179      O1186   1.262       .  A
C1189      C1190   1.399       .  A
C1189      C1194   1.399       .  A
C1189      H1199   1.085       .  S
C1190      C1195   1.474       .  S
C1190      C1191   1.407       .  A
C1191      C1192   1.399       .  A
C1191      N1196   1.429       .  S
C1192      C1193   1.403       .  A
C1192      H1197   1.085       .  S
C1193      C1194   1.415       .  A
C1194      N1198   1.430       .  S
C1195      C1200   1.404       .  A
C1195      C1204   1.401       .  A
N1196      O1211   1.262       .  A
N1196      O1212   1.262       .  A
N1198      O1209   1.262       .  A
N1198      O1210   1.262       .  A
C1200      C1201   1.398       .  A
C1200      N1205   1.428       .  S
C1201      C1202   1.407       .  A
C1201      H1206   1.084       .  S
C1202      C1203   1.414       .  A
C1203      C1204   1.401       .  A
C1203      N1207   1.430       .  S
C1204      H1208   1.085       .  S
N1205      O1215   1.262       .  A
N1205      O1216   1.262       .  A
N1207      O1213   1.262       .  A
N1207      O1214   1.262       .  A
C1217      C1218   1.403       .  A
C1217      C1222   1.408       .  A
C1217      H1227   1.084       .  S
C1218      C1223   1.482       .  S
C1218      C1219   1.405       .  A
C1219      C1220   1.397       .  A
C1219      N1224   1.429       .  S
C1220      C1221   1.408       .  A
C1220      H1225   1.084       .  S
C1221      C1222   1.417       .  A
C1222      N1226   1.429       .  S
C1223      C1228   1.408       .  A
C1223      C1232   1.399       .  A
N1224      O1239   1.262       .  A
N1224      O1240   1.262       .  A
N1226      O1237   1.262       .  A
N1226      O1238   1.262       .  A
C1228      C1229   1.406       .  A
C1228      N1233   1.428       .  S
C1229      C1230   1.408       .  A
C1229      H1234   1.084       .  S
C1230      C1231   1.418       .  A
C1231      C1232   1.399       .  A
C1231      N1235   1.430       .  S
C1232      H1236   1.085       .  S
N1233      O1243   1.262       .  A
N1233      O1244   1.262       .  A
N1235      O1241   1.262       .  A
N1235      O1242   1.262       .  A
C1245      C1246   1.403       .  A
C1245      C1250   1.402       .  A
C1245      H1255   1.084       .  S
C1246      C1251   1.486       .  S
C1246      C1247   1.409       .  A
C1247      C1248   1.399       .  A
C1247      N1252   1.429       .  S
C1248      C1249   1.406       .  A
C1248      H1253   1.085       .  S
C1249      C1250   1.416       .  A
C1250      N1254   1.429       .  S
C1251      C1256   1.409       .  A
C1251      C1260   1.403       .  A
N1252      O1267   1.262       .  A
N1252      O1268   1.262       .  A
N1254      O1265   1.262       .  A
N1254      O1266   1.262       .  A
C1256      C1257   1.402       .  A
C1256      N1261   1.429       .  S
C1257      C1258   1.407       .  A
C1257      H1262   1.084       .  S
C1258      C1259   1.414       .  A
C1259      C1260   1.400       .  A
C1259      N1263   1.429       .  S
C1260      H1264   1.084       .  S
N1261      O1271   1.262       .  A
N1261      O1272   1.262       .  A
N1263      O1269   1.262       .  A
N1263      O1270   1.262       .  A
O1273      C1288   1.262       .  A
O1273     Al1281   1.911       .  S
C1274      O1284   1.261       .  A
C1274      O1275   1.263       .  A
C1274      C2437   1.479       .  S
O1275     Al1277   1.912       .  S
O1276      C1278   1.261       .  A
O1276     Al1277   1.879       .  S
Al1277     O1285   1.896       .  S
Al1277     O1287   1.906       .  S
Al1277     O1286   1.775       .  S
C1278      O1291   1.267       .  A
C1278      C2418   1.484       .  S
O1279      C1289   1.263       .  A
O1279     Al1281   1.910       .  S
O1280      C1293   1.261       .  A
O1280     Al1290   1.883       .  S
Al1281     O1294   1.934       .  S
Al1281     O1291   1.935       .  S
Al1281     O1286   1.784       .  S
O1282      C1289   1.260       .  A
O1282     Al1290   1.904       .  S
O1283      C1292   1.264       .  A
O1283     Al1290   1.920       .  S
O1284     Al1290   1.911       .  S
O1285      C1292   1.261       .  A
O1286     Al1290   1.780       .  S
O1287      C1288   1.260       .  A
C1288      C2390   1.486       .  S
C1289      C2502   1.488       .  S
C1292      C2474   1.479       .  S
C1293      O1294   1.267       .  A
C1293      C2521   1.490       .  S
O1295      C1310   1.264       .  A
C1296      O1306   1.261       .  A
C1296      O1297   1.260       .  A
C1296      C2446   1.483       .  S
O1298      C1300   1.261       .  A
Al1299     O1307   1.895   1_554  S
Al1299     O1309   1.907   1_554  S
Al1299     O1308   1.780       .  S
C1300      O1313   1.266       .  A
C1300      C2306   1.480       .  S
O1301      C1311   1.264       .  A
O1301     Al1303   1.911       .  S
O1302      C1315   1.260       .  A
O1302     Al1312   1.893       .  S
Al1303     O1313   1.930       .  S
O1304      C1311   1.261       .  A
O1305      C1314   1.263       .  A
O1305     Al1312   1.914       .  S
O1307      C1314   1.264       .  A
O1308     Al1312   1.782   1_554  S
O1309      C1310   1.259       .  A
C1310      C2278   1.490       .  S
C1311      C2353   1.495       .  S
C1314      C2465   1.485       .  S
C1315      O1316   1.260       .  A
C1315      C2325   1.473       .  S
O1317      C1332   1.261       .  A
O1317     Al1325   1.917       .  S
C1318      O1328   1.264       .  A
C1318      O1319   1.261       .  A
C1318      C2194   1.494       .  S
O1319     Al1321   1.913       .  S
O1320      C1322   1.261       .  A
O1320     Al1321   1.864       .  S
Al1321     O1329   1.881       .  S
Al1321     O1331   1.902       .  S
Al1321     O1330   1.773       .  S
C1322      O1335   1.267       .  A
C1322      C2250   1.468       .  S
O1323      C1333   1.261       .  A
O1323     Al1325   1.908       .  S
O1324      C1337   1.260       .  A
O1324     Al1334   1.880       .  S
Al1325     O1338   1.913       .  S
Al1325     O1335   1.921       .  S
Al1325     O1330   1.788       .  S
O1326      C1333   1.262       .  A
O1326     Al1334   1.903       .  S
O1327      C1336   1.265       .  A
O1327     Al1334   1.914       .  S
O1328     Al1334   1.924       .  S
O1329      C1336   1.260       .  A
O1330     Al1334   1.779       .  S
O1331      C1332   1.256       .  A
C1332      C2213   1.488       .  S
C1333      C2362   1.493       .  S
C1336      C2157   1.462       .  S
C1337      O1338   1.263       .  A
C1337      C2334   1.484       .  S
O1339      C1354   1.262       .  A
C1340      O1350   1.262       .  A
C1340      O1341   1.257       .  A
C1340      C2138   1.482       .  S
O1342      C1344   1.261       .  A
Al1343     O1351   1.886       .  S
Al1343     O1353   1.888       .  S
Al1343     O1352   1.774       .  S
C1344      O1357   1.269       .  A
C1344      C2082   1.480       .  S
O1345      C1355   1.261       .  A
O1345     Al1347   1.901       .  S
O1346      C1359   1.261       .  A
O1346     Al1356   1.890       .  S
Al1347     O1357   1.942       .  S
O1348      C1355   1.264       .  A
O1349      C1358   1.266       .  A
O1349     Al1356   1.928       .  S
O1351      C1358   1.262       .  A
O1352     Al1356   1.779       .  S
O1353      C1354   1.255       .  A
C1354      C2045   1.476       .  S
C1355      C2493   1.482       .  S
C1358      C2110   1.484       .  S
C1359      O1360   1.266       .  A
C1359      C2530   1.483       .  S
O1361      C1376   1.262       .  A
C1362      O1372   1.261       .  A
C1362      O1363   1.261       .  A
C1362      C2017   1.486       .  S
O1364      C1366   1.259       .  A
Al1365     O1373   1.892   1_554  S
Al1365     O1375   1.909   1_554  S
Al1365     O1374   1.773       .  S
C1366      O1379   1.265       .  A
C1366      C2241   1.468       .  S
O1367      C1377   1.260       .  A
O1367     Al1369   1.901       .  S
O1368      C1381   1.262       .  A
O1368     Al1378   1.888   1_556  S
Al1369     O1379   1.913       .  S
O1370      C1377   1.263       .  A
O1371      C1380   1.267       .  A
O1371     Al1378   1.934   1_556  S
O1373      C1380   1.262       .  A
O1374     Al1378   1.780       .  S
O1375      C1376   1.262       .  A
C1376      C2222   1.494       .  S
C1377      C1970   1.485       .  S
C1380      C1998   1.482       .  S
C1381      O1382   1.265       .  A
C1381      C1942   1.489       .  S
O1383      C1398   1.261       .  A
O1383     Al1391   1.900       .  S
C1384      O1394   1.261       .  A
C1384      O1385   1.260       .  A
C1384      C1905   1.465       .  S
O1385     Al1387   1.908       .  S
O1386      C1388   1.259       .  A
O1386     Al1387   1.885       .  S
Al1387     O1395   1.890       .  S
Al1387     O1397   1.902       .  S
Al1387     O1396   1.777       .  S
C1388      O1401   1.264       .  A
C1388      C2073   1.477       .  S
O1389      C1399   1.261       .  A
O1389     Al1391   1.897       .  S
O1390      C1403   1.261       .  A
O1390     Al1400   1.891       .  S
Al1391     O1404   1.925       .  S
Al1391     O1401   1.919       .  S
Al1391     O1396   1.788       .  S
O1392      C1399   1.262       .  A
O1392     Al1400   1.912       .  S
O1393      C1402   1.263       .  A
O1393     Al1400   1.914       .  S
O1394     Al1400   1.905       .  S
O1395      C1402   1.259       .  A
O1396     Al1400   1.781       .  S
O1397      C1398   1.262       .  A
C1398      C2054   1.473       .  S
C1399      C1961   1.478       .  S
C1402      C1877   1.482       .  S
C1403      O1404   1.266       .  A
C1403      C1933   1.480       .  S
O1405      C1420   1.265       .  A
O1405     Al1413   1.925       .  S
C1406      O1416   1.261       .  A
C1406      O1407   1.261       .  A
C1406      C2026   1.478       .  S
O1407     Al1409   1.915       .  S
O1408      C1410   1.262       .  A
O1408     Al1409   1.889       .  S
Al1409     O1417   1.896       .  S
Al1409     O1419   1.907       .  S
Al1409     O1418   1.777       .  S
C1410      O1423   1.264       .  A
C1410      C1793   1.481       .  S
O1411      C1421   1.265       .  A
O1411     Al1413   1.915       .  S
O1412      C1425   1.261       .  A
O1412     Al1422   1.889       .  S
Al1413     O1426   1.912       .  S
Al1413     O1423   1.921       .  S
Al1413     O1418   1.786       .  S
O1414      C1421   1.261       .  A
O1414     Al1422   1.905       .  S
O1415      C1424   1.264       .  A
O1415     Al1422   1.919       .  S
O1416     Al1422   1.906       .  S
O1417      C1424   1.262       .  A
O1418     Al1422   1.781       .  S
O1419      C1420   1.261       .  A
C1420      C1774   1.489       .  S
C1421      C1830   1.489       .  S
C1424      C1989   1.477       .  S
C1425      O1426   1.262       .  A
C1425      C1858   1.479       .  S
O1427      C1442   1.264       .  A
C1428      O1438   1.264       .  A
C1428      O1429   1.261       .  A
C1428      C1914   1.485       .  S
O1430      C1432   1.260       .  A
Al1431     O1439   1.888   1_554  S
Al1431     O1441   1.905   1_554  S
Al1431     O1440   1.782       .  S
C1432      O1445   1.266       .  A
C1432      C1690   1.475       .  S
O1433      C1443   1.260       .  A
O1433     Al1435   1.899       .  S
O1434      C1447   1.260       .  A
O1434     Al1444   1.907   1_556  S
Al1435     O1445   1.926       .  S
O1436      C1443   1.263       .  A
O1437      C1446   1.262       .  A
O1437     Al1444   1.906   1_556  S
O1439      C1446   1.262       .  A
O1440     Al1444   1.790       .  S
O1441      C1442   1.259       .  A
C1442      C1653   1.487       .  S
C1443      C1709   1.479       .  S
C1446      C1886   1.462       .  S
C1447      O1448   1.260       .  A
C1447      C1737   1.486       .  S
O1449      C1464   1.261       .  A
C1450      O1460   1.264       .  A
C1450      O1451   1.258       .  A
C1450      C1625   1.491       .  S
O1452      C1454   1.262       .  A
Al1453     O1461   1.884       .  S
Al1453     O1463   1.898       .  S
Al1453     O1462   1.776       .  S
C1454      O1467   1.268       .  A
C1454      C2409   1.475       .  S
O1455      C1465   1.263       .  A
O1455     Al1457   1.914       .  S
O1456      C1469   1.260       .  A
O1456     Al1466   1.884       .  S
Al1457     O1467   1.927       .  S
O1458      C1465   1.261       .  A
O1459      C1468   1.265       .  A
O1459     Al1466   1.926       .  S
O1461      C1468   1.261       .  A
O1462     Al1466   1.784       .  S
O1463      C1464   1.258       .  A
C1464      C2381   1.496       .  S
C1465      C1821   1.493       .  S
C1468      C1606   1.484       .  S
C1469      O1470   1.265       .  A
C1469      C1849   1.484       .  S
O1471      C1486   1.263       .  A
O1471     Al1479   1.924       .  S
C1472      O1482   1.262       .  A
C1472      O1473   1.262       .  A
C1472      C1634   1.491       .  S
O1473     Al1475   1.921       .  S
O1474      C1476   1.261       .  A
O1474     Al1475   1.881       .  S
Al1475     O1483   1.893       .  S
Al1475     O1485   1.910       .  S
Al1475     O1484   1.777       .  S
C1476      O1489   1.269       .  A
C1476      C2297   1.476       .  S
O1477      C1487   1.264       .  A
O1477     Al1479   1.917       .  S
O1478      C1491   1.260       .  A
O1478     Al1488   1.885       .  S
Al1479     O1492   1.930       .  S
Al1479     O1489   1.940       .  S
Al1479     O1484   1.790       .  S
O1480      C1487   1.261       .  A
O1480     Al1488   1.894       .  S
O1481      C1490   1.265       .  A
O1481     Al1488   1.915       .  S
O1482     Al1488   1.916       .  S
O1483      C1490   1.261       .  A
O1484     Al1488   1.776       .  S
O1485      C1486   1.261       .  A
C1486      C2269   1.491       .  S
C1487      C1718   1.488       .  S
C1490      C1597   1.477       .  S
C1491      O1492   1.265       .  A
C1491      C1746   1.487       .  S
O1493      C1508   1.262       .  A
C1494      O1504   1.264       .  A
C1494      O1495   1.260       .  A
C1494      C2185   1.485       .  S
O1496      C1498   1.261       .  A
Al1497     O1505   1.884   1_554  S
Al1497     O1507   1.905   1_554  S
Al1497     O1506   1.777   1_554  S
C1498      O1511   1.268       .  A
C1498      C1802   1.476       .  S
O1499      C1509   1.260       .  A
O1499     Al1501   1.898       .  S
O1500      C1513   1.258       .  A
O1500     Al1510   1.883       .  S
Al1501     O1511   1.932       .  S
O1502      C1509   1.262       .  A
O1503      C1512   1.259       .  A
O1503     Al1510   1.904       .  S
O1505      C1512   1.263       .  A
O1506     Al1510   1.783       .  S
O1507      C1508   1.258       .  A
C1508      C1765   1.493       .  S
C1509      C1578   1.474       .  S
C1512      C2166   1.476       .  S
C1513      O1514   1.265       .  A
C1513      C1550   1.483       .  S
O1515      C1530   1.266       .  A
O1515     Al1523   1.928       .  S
C1516      O1526   1.258       .  A
C1516      O1517   1.261       .  A
C1516      C2129   1.488       .  S
O1517     Al1519   1.912       .  S
O1518      C1520   1.263       .  A
O1518     Al1519   1.887       .  S
Al1519     O1527   1.892       .  S
Al1519     O1529   1.896       .  S
Al1519     O1528   1.774       .  S
C1520      O1533   1.263       .  A
C1520      C1681   1.474       .  S
O1521      C1531   1.263       .  A
O1521     Al1523   1.905       .  S
O1522      C1535   1.258       .  A
O1522     Al1532   1.884       .  S
Al1523     O1536   1.907       .  S
Al1523     O1533   1.913       .  S
Al1523     O1528   1.791       .  S
O1524      C1531   1.263       .  A
O1524     Al1532   1.899       .  S
O1525      C1534   1.265       .  A
O1525     Al1532   1.917       .  S
O1526     Al1532   1.902       .  S
O1527      C1534   1.261       .  A
O1528     Al1532   1.781       .  S
O1529      C1530   1.261       .  A
C1530      C1662   1.492       .  S
C1531      C1569   1.482       .  S
C1534      C2101   1.476       .  S
C1535      O1536   1.261       .  A
C1535      C1541   1.473       .  S
C1537      C1538   1.401       .  A
C1537      C1542   1.398       .  A
C1537      H1547   1.084       .  S
C1538      C1543   1.477       .  S
C1538      C1539   1.410       .  A
C1539      C1540   1.396       .  A
C1539      N1544   1.429       .  S
C1540      C1541   1.402       .  A
C1540      H1545   1.085       .  S
C1541      C1542   1.413       .  A
C1542      N1546   1.430       .  S
C1543      C1548   1.407       .  A
C1543      C1552   1.399       .  A
N1544      O1559   1.262       .  A
N1544      O1560   1.262       .  A
N1546      O1557   1.262       .  A
N1546      O1558   1.262       .  A
C1548      C1549   1.398       .  A
C1548      N1553   1.429       .  S
C1549      C1550   1.406       .  A
C1549      H1554   1.084       .  S
C1550      C1551   1.416       .  A
C1551      C1552   1.397       .  A
C1551      N1555   1.429       .  S
C1552      H1556   1.085       .  S
N1553      O1563   1.262       .  A
N1553      O1564   1.262       .  A
N1555      O1561   1.262       .  A
N1555      O1562   1.262       .  A
C1565      C1566   1.404       .  A
C1565      C1570   1.404       .  A
C1565      H1575   1.084       .  S
C1566      C1571   1.480       .  S
C1566      C1567   1.407       .  A
C1567      C1568   1.394       .  A
C1567      N1572   1.430       .  S
C1568      C1569   1.405       .  A
C1568      H1573   1.085       .  S
C1569      C1570   1.414       .  A
C1570      N1574   1.429       .  S
C1571      C1576   1.410       .  A
C1571      C1580   1.401       .  A
N1572      O1587   1.262       .  A
N1572      O1588   1.262       .  A
N1574      O1585   1.262       .  A
N1574      O1586   1.262       .  A
C1576      C1577   1.402       .  A
C1576      N1581   1.428       .  S
C1577      C1578   1.402       .  A
C1577      H1582   1.084       .  S
C1578      C1579   1.411       .  A
C1579      C1580   1.398       .  A
C1579      N1583   1.430       .  S
C1580      H1584   1.084       .  S
N1581      O1591   1.262       .  A
N1581      O1592   1.262       .  A
N1583      O1589   1.262       .  A
N1583      O1590   1.262       .  A
C1593      C1594   1.404       .  A
C1593      C1598   1.400       .  A
C1593      H1603   1.085       .  S
C1594      C1599   1.478       .  S
C1594      C1595   1.406       .  A
C1595      C1596   1.396       .  A
C1595      N1600   1.429       .  S
C1596      C1597   1.405       .  A
C1596      H1601   1.084       .  S
C1597      C1598   1.412       .  A
C1598      N1602   1.430       .  S
C1599      C1604   1.406       .  A
C1599      C1608   1.401       .  A
N1600      O1615   1.262       .  A
N1600      O1616   1.262       .  A
N1602      O1613   1.262       .  A
N1602      O1614   1.262       .  A
C1604      C1605   1.396       .  A
C1604      N1609   1.429       .  S
C1605      C1606   1.406       .  A
C1605      H1610   1.085       .  S
C1606      C1607   1.417       .  A
C1607      C1608   1.400       .  A
C1607      N1611   1.429       .  S
C1608      H1612   1.085       .  S
N1609      O1619   1.262       .  A
N1609      O1620   1.262       .  A
N1611      O1617   1.262       .  A
N1611      O1618   1.262       .  A
C1621      C1622   1.399       .  A
C1621      C1626   1.401       .  A
C1621      H1631   1.084       .  S
C1622      C1627   1.489       .  S
C1622      C1623   1.412       .  A
C1623      C1624   1.408       .  A
C1623      N1628   1.428       .  S
C1624      C1625   1.405       .  A
C1624      H1629   1.084       .  S
C1625      C1626   1.418       .  A
C1626      N1630   1.430       .  S
C1627      C1632   1.409       .  A
C1627      C1636   1.405       .  A
N1628      O1643   1.262       .  A
N1628      O1644   1.262       .  A
N1630      O1641   1.262       .  A
N1630      O1642   1.262       .  A
C1632      C1633   1.402       .  A
C1632      N1637   1.429       .  S
C1633      C1634   1.408       .  A
C1633      H1638   1.084       .  S
C1634      C1635   1.413       .  A
C1635      C1636   1.407       .  A
C1635      N1639   1.429       .  S
C1636      H1640   1.084       .  S
N1637      O1647   1.262       .  A
N1637      O1648   1.262       .  A
N1639      O1645   1.262       .  A
N1639      O1646   1.262       .  A
C1649      C1650   1.398       .  A
C1649      C1654   1.399   1_565  A
C1649      H1659   1.084       .  S
C1650      C1655   1.481       .  S
C1650      C1651   1.409   1_565  A
C1651      C1652   1.405       .  A
C1651      N1656   1.428       .  S
C1652      C1653   1.405       .  A
C1652      H1657   1.084       .  S
C1653      C1654   1.419       .  A
C1654      N1658   1.430       .  S
C1655      C1660   1.404       .  A
C1655      C1664   1.404       .  A
N1656      O1671   1.262       .  A
N1656      O1672   1.262       .  A
N1658      O1669   1.262       .  A
N1658      O1670   1.262   1_546  A
C1660      C1661   1.394       .  A
C1660      N1665   1.430       .  S
C1661      C1662   1.409       .  A
C1661      H1666   1.084       .  S
C1662      C1663   1.415       .  A
C1663      C1664   1.410       .  A
C1663      N1667   1.428       .  S
C1664      H1668   1.084       .  S
N1665      O1675   1.262       .  A
N1665      O1676   1.262   1_565  A
N1667      O1673   1.262       .  A
N1667      O1674   1.262       .  A
C1677      C1678   1.400       .  A
C1677      C1682   1.401       .  A
C1677      H1687   1.085       .  S
C1678      C1683   1.472   1_565  S
C1678      C1679   1.409       .  A
C1679      C1680   1.391       .  A
C1679      N1684   1.430       .  S
C1680      C1681   1.400       .  A
C1680      H1685   1.085       .  S
C1681      C1682   1.417       .  A
C1682      N1686   1.430       .  S
C1683      C1688   1.406       .  A
C1683      C1692   1.397       .  A
N1684      O1699   1.262       .  A
N1684      O1700   1.261       .  A
N1686      O1697   1.262       .  A
N1686      O1698   1.262       .  A
C1688      C1689   1.402       .  A
C1688      N1693   1.428   1_545  S
C1689      C1690   1.407       .  A
C1689      H1694   1.084       .  S
C1690      C1691   1.413       .  A
C1691      C1692   1.391       .  A
C1691      N1695   1.430       .  S
C1692      H1696   1.085       .  S
N1693      O1703   1.262       .  A
N1693      O1704   1.262       .  A
N1695      O1701   1.262       .  A
N1695      O1702   1.262       .  A
C1705      C1706   1.401       .  A
C1705      C1710   1.398       .  A
C1705      H1715   1.084       .  S
C1706      C1711   1.481       .  S
C1706      C1707   1.409       .  A
C1707      C1708   1.404       .  A
C1707      N1712   1.428       .  S
C1708      C1709   1.405       .  A
C1708      H1713   1.084       .  S
C1709      C1710   1.412       .  A
C1710      N1714   1.429       .  S
C1711      C1716   1.405       .  A
C1711      C1720   1.404       .  A
N1712      O1727   1.262       .  A
N1712      O1728   1.262       .  A
N1714      O1725   1.262       .  A
N1714      O1726   1.262       .  A
C1716      C1717   1.394       .  A
C1716      N1721   1.429       .  S
C1717      C1718   1.407       .  A
C1717      H1722   1.084       .  S
C1718      C1719   1.415       .  A
C1719      C1720   1.408       .  A
C1719      N1723   1.428       .  S
C1720      H1724   1.084       .  S
N1721      O1731   1.262       .  A
N1721      O1732   1.262       .  A
N1723      O1729   1.262       .  A
N1723      O1730   1.262       .  A
C1733      C1734   1.404       .  A
C1733      C1738   1.403       .  A
C1733      H1743   1.084       .  S
C1734      C1739   1.485       .  S
C1734      C1735   1.407       .  A
C1735      C1736   1.400       .  A
C1735      N1740   1.429       .  S
C1736      C1737   1.408       .  A
C1736      H1741   1.084       .  S
C1737      C1738   1.412       .  A
C1738      N1742   1.428       .  S
C1739      C1744   1.407       .  A
C1739      C1748   1.404       .  A
N1740      O1755   1.262       .  A
N1740      O1756   1.262       .  A
N1742      O1753   1.262       .  A
C1744      C1745   1.398       .  A
C1744      N1749   1.429       .  S
C1745      C1746   1.406       .  A
C1745      H1750   1.084       .  S
C1746      C1747   1.416       .  A
C1747      C1748   1.404       .  A
C1747      N1751   1.429       .  S
C1748      H1752   1.084       .  S
N1749      O1759   1.262       .  A
N1749      O1760   1.262       .  A
N1751      O1757   1.262       .  A
N1751      O1758   1.262       .  A
C1761      C1762   1.398       .  A
C1761      C1766   1.398       .  A
C1761      H1771   1.085   1_455  S
C1762      C1767   1.484   1_455  S
C1762      C1763   1.407       .  A
C1763      C1764   1.408       .  A
C1763      N1768   1.428       .  S
C1764      C1765   1.409       .  A
C1764      H1769   1.084       .  S
C1765      C1766   1.420       .  A
C1766      N1770   1.430       .  S
C1767      C1772   1.406       .  A
C1767      C1776   1.404       .  A
N1768      O1783   1.262       .  A
N1768      O1784   1.262       .  A
N1770      O1781   1.262       .  A
C1772      C1773   1.400       .  A
C1772      N1777   1.430   1_655  S
C1773      C1774   1.408       .  A
C1773      H1778   1.084       .  S
C1774      C1775   1.413       .  A
C1775      C1776   1.408       .  A
C1775      N1779   1.428       .  S
C1776      H1780   1.084       .  S
N1777      O1787   1.262       .  A
N1777      O1788   1.262       .  A
N1779      O1785   1.261       .  A
N1779      O1786   1.262       .  A
C1789      C1790   1.400       .  A
C1789      C1794   1.402       .  A
C1789      H1799   1.084       .  S
C1790      C1795   1.475   1_655  S
C1790      C1791   1.407       .  A
C1791      C1792   1.395       .  A
C1791      N1796   1.429       .  S
C1792      C1793   1.404       .  A
C1792      H1797   1.084       .  S
C1793      C1794   1.417       .  A
C1794      N1798   1.429       .  S
C1795      C1800   1.406       .  A
C1795      C1804   1.401       .  A
N1796      O1811   1.262       .  A
N1796      O1812   1.262       .  A
N1798      O1809   1.262       .  A
N1798      O1810   1.262       .  A
C1800      C1801   1.401       .  A
C1800      N1805   1.428   1_455  S
C1801      C1802   1.405       .  A
C1801      H1806   1.084       .  S
C1802      C1803   1.411       .  A
C1803      C1804   1.396       .  A
C1803      N1807   1.430       .  S
C1804      H1808   1.084       .  S
N1805      O1815   1.262       .  A
N1805      O1816   1.262       .  A
N1807      O1813   1.262       .  A
N1807      O1814   1.262       .  A
C1817      C1818   1.404       .  A
C1817      C1822   1.407       .  A
C1817      H1827   1.084       .  S
C1818      C1823   1.485       .  S
C1818      C1819   1.406       .  A
C1819      C1820   1.397       .  A
C1819      N1824   1.430       .  S
C1820      C1821   1.409       .  A
C1820      H1825   1.084       .  S
C1821      C1822   1.417       .  A
C1822      N1826   1.428       .  S
C1823      C1828   1.409       .  A
C1823      C1832   1.400       .  A
N1824      O1839   1.262       .  A
N1824      O1840   1.262       .  A
N1826      O1837   1.262       .  A
N1826      O1838   1.262       .  A
C1828      C1829   1.405       .  A
C1828      N1833   1.428       .  S
C1829      C1830   1.407       .  A
C1829      H1834   1.084       .  S
C1830      C1831   1.418       .  A
C1831      C1832   1.398       .  A
C1831      N1835   1.430       .  S
C1832      H1836   1.085       .  S
N1833      O1843   1.262       .  A
N1833      O1844   1.262       .  A
N1835      O1841   1.262       .  A
N1835      O1842   1.262       .  A
C1845      C1846   1.401       .  A
C1845      C1850   1.397       .  A
C1845      H1855   1.084       .  S
C1846      C1851   1.480       .  S
C1846      C1847   1.408       .  A
C1847      C1848   1.399       .  A
C1847      N1852   1.429       .  S
C1848      C1849   1.407       .  A
C1848      H1853   1.084       .  S
C1849      C1850   1.415       .  A
C1850      N1854   1.429       .  S
C1851      C1856   1.410       .  A
C1851      C1860   1.401       .  A
N1852      O1867   1.262       .  A
N1852      O1868   1.262       .  A
N1854      O1865   1.262       .  A
N1854      O1866   1.262       .  A
C1856      C1857   1.397       .  A
C1856      N1861   1.429       .  S
C1857      C1858   1.403       .  A
C1857      H1862   1.084       .  S
C1858      C1859   1.416       .  A
C1859      C1860   1.399       .  A
C1859      N1863   1.430       .  S
C1860      H1864   1.084       .  S
N1861      O1871   1.262       .  A
N1861      O1872   1.262       .  A
N1863      O1869   1.262       .  A
N1863      O1870   1.262       .  A
C1873      C1874   1.401       .  A
C1873      C1878   1.394       .  A
C1873      H1883   1.085       .  S
C1874      C1879   1.481       .  S
C1874      C1875   1.411       .  A
C1875      C1876   1.401       .  A
C1875      N1880   1.431       .  S
C1876      C1877   1.407       .  A
C1876      H1881   1.084       .  S
C1877      C1878   1.413       .  A
C1878      N1882   1.428       .  S
C1879      C1884   1.414       .  A
C1879      C1888   1.404       .  A
N1880      O1895   1.262       .  A
N1880      O1896   1.262       .  A
N1882      O1893   1.262       .  A
N1882      O1894   1.262       .  A
C1884      C1885   1.401       .  A
C1884      N1889   1.431       .  S
C1885      C1886   1.399       .  A
C1885      H1890   1.084       .  S
C1886      C1887   1.404       .  A
C1887      C1888   1.394       .  A
C1887      N1891   1.429       .  S
C1888      H1892   1.085       .  S
N1889      O1899   1.262       .  A
N1889      O1900   1.262       .  A
N1891      O1897   1.262       .  A
N1891      O1898   1.262       .  A
C1901      C1902   1.403       .  A
C1901      C1906   1.401       .  A
C1901      H1911   1.084       .  S
C1902      C1907   1.482       .  S
C1902      C1903   1.413       .  A
C1903      C1904   1.401       .  A
C1903      N1908   1.430       .  S
C1904      C1905   1.398       .  A
C1904      H1909   1.083       .  S
C1905      C1906   1.407       .  A
C1906      N1910   1.430       .  S
C1907      C1912   1.408       .  A
C1907      C1916   1.404       .  A
N1908      O1923   1.262       .  A
N1908      O1924   1.262       .  A
N1910      O1921   1.262       .  A
N1910      O1922   1.262       .  A
C1912      C1913   1.397       .  A
C1912      N1917   1.431       .  S
C1913      C1914   1.406       .  A
C1913      H1918   1.084       .  S
C1914      C1915   1.412       .  A
C1915      C1916   1.406       .  A
C1915      N1919   1.428       .  S
C1916      H1920   1.085       .  S
N1917      O1927   1.262       .  A
N1917      O1928   1.262       .  A
N1919      O1925   1.262       .  A
N1919      O1926   1.262       .  A
C1929      C1930   1.404       .  A
C1929      C1934   1.399       .  A
C1929      H1939   1.084       .  S
C1930      C1935   1.485       .  S
C1930      C1931   1.410       .  A
C1931      C1932   1.400       .  A
C1931      N1936   1.429       .  S
C1932      C1933   1.405       .  A
C1932      H1937   1.085       .  S
C1933      C1934   1.412       .  A
C1934      N1938   1.429       .  S
C1935      C1940   1.409       .  A
C1935      C1944   1.403       .  A
N1936      O1951   1.262       .  A
N1936      O1952   1.262       .  A
N1938      O1949   1.262       .  A
N1938      O1950   1.262       .  A
C1940      C1941   1.397       .  A
C1940      N1945   1.429       .  S
C1941      C1942   1.406       .  A
C1941      H1946   1.084       .  S
C1942      C1943   1.417       .  A
C1943      C1944   1.403       .  A
C1943      N1947   1.429       .  S
C1944      H1948   1.084       .  S
N1945      O1955   1.262       .  A
N1945      O1956   1.262       .  A
N1947      O1953   1.262       .  A
N1947      O1954   1.262       .  A
C1957      C1958   1.398       .  A
C1957      C1962   1.396       .  A
C1957      H1967   1.085       .  S
C1958      C1963   1.474       .  S
C1958      C1959   1.407       .  A
C1959      C1960   1.402       .  A
C1959      N1964   1.428       .  S
C1960      C1961   1.405       .  A
C1960      H1965   1.084       .  S
C1961      C1962   1.414       .  A
C1962      N1966   1.430       .  S
C1963      C1968   1.403       .  A
C1963      C1972   1.402       .  A
N1964      O1979   1.262       .  A
N1964      O1980   1.262       .  A
N1966      O1977   1.262       .  A
N1966      O1978   1.262       .  A
C1968      C1969   1.393       .  A
C1968      N1973   1.429       .  S
C1969      C1970   1.406       .  A
C1969      H1974   1.084       .  S
C1970      C1971   1.417       .  A
C1971      C1972   1.405       .  A
C1971      N1975   1.429       .  S
C1972      H1976   1.084       .  S
N1973      O1983   1.262       .  A
N1973      O1984   1.262       .  A
N1975      O1981   1.262       .  A
N1975      O1982   1.262       .  A
C1985      C1986   1.404       .  A
C1985      C1990   1.404       .  A
C1985      H1995   1.084       .  S
C1986      C1991   1.477       .  S
C1986      C1987   1.405       .  A
C1987      C1988   1.398       .  A
C1987      N1992   1.429       .  S
C1988      C1989   1.404       .  A
C1988      H1993   1.084       .  S
C1989      C1990   1.411       .  A
C1990      N1994   1.431       .  S
C1991      C1996   1.406       .  A
C1991      C2000   1.401       .  A
N1992      O2007   1.261       .  A
N1992      O2008   1.262       .  A
N1994      O2005   1.262       .  A
N1994      O2006   1.262       .  A
C1996      C1997   1.401       .  A
C1996      N2001   1.428       .  S
C1997      C1998   1.406       .  A
C1997      H2002   1.084       .  S
C1998      C1999   1.415       .  A
C1999      C2000   1.401       .  A
C1999      N2003   1.429       .  S
C2000      H2004   1.084       .  S
N2001      O2011   1.261       .  A
N2001      O2012   1.262       .  A
N2003      O2009   1.262       .  A
N2003      O2010   1.262       .  A
C2013      C2014   1.404       .  A
C2013      C2018   1.405       .  A
C2013      H2023   1.084       .  S
C2014      C2019   1.479       .  S
C2014      C2015   1.407       .  A
C2015      C2016   1.397       .  A
C2015      N2020   1.431       .  S
C2016      C2017   1.407       .  A
C2016      H2021   1.084       .  S
C2017      C2018   1.414       .  A
C2018      N2022   1.429       .  S
C2019      C2024   1.410       .  A
C2019      C2028   1.398       .  A
N2020      O2035   1.262       .  A
N2020      O2036   1.262       .  A
N2022      O2033   1.262       .  A
N2022      O2034   1.262       .  A
C2024      C2025   1.404       .  A
C2024      N2029   1.429       .  S
C2025      C2026   1.404       .  A
C2025      H2030   1.084       .  S
C2026      C2027   1.413       .  A
C2027      C2028   1.397       .  A
C2027      N2031   1.429       .  S
C2028      H2032   1.084       .  S
N2029      O2039   1.262       .  A
N2029      O2040   1.262       .  A
N2031      O2037   1.261       .  A
N2031      O2038   1.262       .  A
C2041      C2042   1.398       .  A
C2041      C2046   1.394       .  A
C2041      H2051   1.085   1_565  S
C2042      C2047   1.478   1_565  S
C2042      C2043   1.410       .  A
C2043      C2044   1.405       .  A
C2043      N2048   1.428       .  S
C2044      C2045   1.404       .  A
C2044      H2049   1.084       .  S
C2045      C2046   1.415       .  A
C2046      N2050   1.431       .  S
C2047      C2052   1.409       .  A
C2047      C2056   1.404       .  A
N2048      O2063   1.262       .  A
N2048      O2064   1.262       .  A
N2050      O2061   1.262       .  A
C2052      C2053   1.393       .  A
C2052      N2057   1.430       .  S
C2053      C2054   1.400       .  A
C2053      H2058   1.084       .  S
C2054      C2055   1.411       .  A
C2055      C2056   1.405       .  A
C2055      N2059   1.428       .  S
C2056      H2060   1.084       .  S
N2057      O2067   1.262       .  A
N2057      O2068   1.262   1_545  A
N2059      O2065   1.262       .  A
N2059      O2066   1.262       .  A
C2069      C2070   1.402   1_545  A
C2069      C2074   1.396       .  A
C2069      H2079   1.085       .  S
C2070      C2075   1.479       .  S
C2070      C2071   1.407   1_565  A
C2071      C2072   1.400       .  A
C2071      N2076   1.429   1_545  S
C2072      C2073   1.407       .  A
C2072      H2077   1.085       .  S
C2073      C2074   1.411       .  A
C2074      N2078   1.429       .  S
C2075      C2080   1.408       .  A
C2075      C2084   1.404       .  A
N2076      O2091   1.262       .  A
N2076      O2092   1.262       .  A
N2078      O2089   1.262       .  A
N2078      O2090   1.261       .  A
C2080      C2081   1.392       .  A
C2080      N2085   1.430       .  S
C2081      C2082   1.405       .  A
C2081      H2086   1.085       .  S
C2082      C2083   1.414       .  A
C2083      C2084   1.404       .  A
C2083      N2087   1.429       .  S
C2084      H2088   1.084       .  S
N2085      O2095   1.262       .  A
N2085      O2096   1.262       .  A
N2087      O2093   1.261       .  A
N2087      O2094   1.262       .  A
C2097      C2098   1.402       .  A
C2097      C2102   1.399       .  A
C2097      H2107   1.085       .  S
C2098      C2103   1.476       .  S
C2098      C2099   1.406       .  A
C2099      C2100   1.398       .  A
C2099      N2104   1.429       .  S
C2100      C2101   1.405       .  A
C2100      H2105   1.085       .  S
C2101      C2102   1.411       .  A
C2102      N2106   1.430       .  S
C2103      C2108   1.405       .  A
C2103      C2112   1.400       .  A
N2104      O2119   1.262       .  A
N2104      O2120   1.262       .  A
N2106      O2117   1.262       .  A
N2106      O2118   1.262       .  A
C2108      C2109   1.396       .  A
C2108      N2113   1.429       .  S
C2109      C2110   1.407       .  A
C2109      H2114   1.084       .  S
C2110      C2111   1.418       .  A
C2111      C2112   1.401       .  A
C2111      N2115   1.430       .  S
C2112      H2116   1.085       .  S
N2113      O2123   1.262       .  A
N2113      O2124   1.262       .  A
N2115      O2121   1.262       .  A
N2115      O2122   1.262       .  A
C2125      C2126   1.402       .  A
C2125      C2130   1.404       .  A
C2125      H2135   1.084       .  S
C2126      C2131   1.478       .  S
C2126      C2127   1.406       .  A
C2127      C2128   1.398       .  A
C2127      N2132   1.429       .  S
C2128      C2129   1.408       .  A
C2128      H2133   1.084       .  S
C2129      C2130   1.416       .  A
C2130      N2134   1.429       .  S
C2131      C2136   1.409       .  A
C2131      C2140   1.398       .  A
N2132      O2147   1.262       .  A
N2132      O2148   1.262       .  A
N2134      O2145   1.262       .  A
N2134      O2146   1.262       .  A
C2136      C2137   1.404       .  A
C2136      N2141   1.428       .  S
C2137      C2138   1.405       .  A
C2137      H2142   1.084       .  S
C2138      C2139   1.417       .  A
C2139      C2140   1.397       .  A
C2139      N2143   1.430       .  S
C2140      H2144   1.085       .  S
N2141      O2151   1.262       .  A
N2141      O2152   1.262       .  A
N2143      O2150   1.262       .  A
C2153      C2154   1.402       .  A
C2153      C2158   1.395       .  A
C2153      H2163   1.086       .  S
C2154      C2159   1.468       .  S
C2154      C2155   1.407       .  A
C2155      C2156   1.393       .  A
C2155      N2160   1.430       .  S
C2156      C2157   1.402       .  A
C2156      H2161   1.086       .  S
C2157      C2158   1.408       .  A
C2158      N2162   1.430       .  S
C2159      C2164   1.407       .  A
C2159      C2168   1.395       .  A
N2160      O2175   1.262       .  A
N2160      O2176   1.262       .  A
N2162      O2173   1.262       .  A
N2162      O2174   1.262       .  A
C2164      C2165   1.386       .  A
C2164      N2169   1.428       .  S
C2165      C2166   1.398       .  A
C2165      H2170   1.133       .  S
C2166      C2167   1.421       .  A
C2167      C2168   1.393       .  A
C2167      N2171   1.432       .  S
C2168      H2172   1.105       .  S
N2169      O2179   1.262       .  A
N2169      O2180   1.262       .  A
N2171      O2177   1.262       .  A
N2171      O2178   1.262       .  A
C2181      C2182   1.399       .  A
C2181      C2186   1.399       .  A
C2181      H2191   1.084       .  S
C2182      C2187   1.488       .  S
C2182      C2183   1.413       .  A
C2183      C2184   1.409       .  A
C2183      N2188   1.428       .  S
C2184      C2185   1.404       .  A
C2184      H2189   1.084       .  S
C2185      C2186   1.415       .  A
C2186      N2190   1.430       .  S
C2187      C2192   1.408       .  A
C2187      C2196   1.406       .  A
N2188      O2203   1.262       .  A
N2188      O2204   1.262       .  A
N2190      O2201   1.262       .  A
N2190      O2202   1.261       .  A
C2192      C2193   1.401       .  A
C2192      N2197   1.430       .  S
C2193      C2194   1.410       .  A
C2193      H2198   1.084       .  S
C2194      C2195   1.413       .  A
C2195      C2196   1.408       .  A
C2195      N2199   1.428       .  S
C2196      H2200   1.084       .  S
N2197      O2207   1.262       .  A
N2197      O2208   1.262       .  A
N2199      O2205   1.262       .  A
N2199      O2206   1.262       .  A
C2209      C2210   1.398       .  A
C2209      C2214   1.398   1_655  A
C2209      H2219   1.085       .  S
C2210      C2215   1.481       .  S
C2210      C2211   1.409   1_655  A
C2211      C2212   1.405       .  A
C2211      N2216   1.428       .  S
C2212      C2213   1.406       .  A
C2212      H2217   1.084       .  S
C2213      C2214   1.419       .  A
C2214      N2218   1.430       .  S
C2215      C2220   1.405       .  A
C2215      C2224   1.403       .  A
N2216      O2231   1.262       .  A
N2216      O2232   1.261       .  A
N2218      O2229   1.262       .  A
N2218      O2230   1.262   1_455  A
C2220      C2221   1.397       .  A
C2220      N2225   1.430   1_655  S
C2221      C2222   1.409       .  A
C2221      H2226   1.084       .  S
C2222      C2223   1.417       .  A
C2223      C2224   1.408       .  A
C2223      N2227   1.428       .  S
C2224      H2228   1.084       .  S
N2225      O2235   1.262       .  A
N2225      O2236   1.261       .  A
N2227      O2233   1.262       .  A
N2227      O2234   1.262       .  A
C2237      C2238   1.401       .  A
C2237      C2242   1.394       .  A
C2237      H2247   1.085       .  S
C2238      C2243   1.467   1_655  S
C2238      C2239   1.404       .  A
C2239      C2240   1.394       .  A
C2239      N2244   1.429       .  S
C2240      C2241   1.404       .  A
C2240      H2245   1.085       .  S
C2241      C2242   1.411       .  A
C2242      N2246   1.430       .  S
C2243      C2248   1.405       .  A
C2243      C2252   1.400       .  A
N2244      O2259   1.262       .  A
N2244      O2260   1.262   1_655  A
N2246      O2257   1.262       .  A
N2246      O2258   1.262       .  A
C2248      C2249   1.389       .  A
C2248      N2253   1.429       .  S
C2249      C2250   1.403       .  A
C2249      H2254   1.085       .  S
C2250      C2251   1.414       .  A
C2251      C2252   1.397       .  A
C2251      N2255   1.430       .  S
C2252      H2256   1.085   1_455  S
N2253      O2263   1.262       .  A
N2253      O2264   1.261       .  A
N2255      O2261   1.262       .  A
N2255      O2262   1.261       .  A
C2265      C2266   1.407       .  A
C2265      C2270   1.408       .  A
C2265      H2275   1.084       .  S
C2266      C2271   1.491       .  S
C2266      C2267   1.410       .  A
C2267      C2268   1.400       .  A
C2267      N2272   1.431       .  S
C2268      C2269   1.407       .  A
C2268      H2273   1.084       .  S
C2269      C2270   1.413       .  A
C2270      N2274   1.428       .  S
C2271      C2276   1.414       .  A
C2271      C2280   1.400       .  A
N2272      O2287   1.262       .  A
N2272      O2288   1.262       .  A
N2274      O2285   1.262       .  A
N2274      O2286   1.262       .  A
C2276      C2277   1.407       .  A
C2276      N2281   1.430       .  S
C2277      C2278   1.405       .  A
C2277      H2282   1.084       .  S
C2278      C2279   1.418       .  A
C2279      C2280   1.400       .  A
C2279      N2283   1.430       .  S
C2280      H2284   1.085       .  S
N2281      O2291   1.262       .  A
N2281      O2292   1.262       .  A
N2283      O2289   1.262       .  A
N2283      O2290   1.262       .  A
C2293      C2294   1.401       .  A
C2293      C2298   1.398       .  A
C2293      H2303   1.085       .  S
C2294      C2299   1.475       .  S
C2294      C2295   1.406       .  A
C2295      C2296   1.402       .  A
C2295      N2300   1.428       .  S
C2296      C2297   1.406       .  A
C2296      H2301   1.084       .  S
C2297      C2298   1.411       .  A
C2298      N2302   1.430       .  S
C2299      C2304   1.405       .  A
C2299      C2308   1.401       .  A
N2300      O2315   1.261       .  A
N2300      O2316   1.262       .  A
N2302      O2313   1.262       .  A
N2302      O2314   1.262       .  A
C2304      C2305   1.395       .  A
C2304      N2309   1.429       .  S
C2305      C2306   1.404       .  A
C2305      H2310   1.084       .  S
C2306      C2307   1.415       .  A
C2307      C2308   1.403       .  A
C2307      N2311   1.429       .  S
C2308      H2312   1.085       .  S
N2309      O2319   1.262       .  A
N2309      O2320   1.262       .  A
N2311      O2318   1.262       .  A
C2321      C2322   1.404       .  A
C2321      C2326   1.395       .  A
C2321      H2331   1.084       .  S
C2322      C2327   1.479       .  S
C2322      C2323   1.408       .  A
C2323      C2324   1.399       .  A
C2323      N2328   1.429       .  S
C2324      C2325   1.406       .  A
C2324      H2329   1.085       .  S
C2325      C2326   1.407       .  A
C2326      N2330   1.429       .  S
C2327      C2332   1.408       .  A
C2327      C2336   1.402       .  A
N2328      O2343   1.262       .  A
N2328      O2344   1.262       .  A
N2330      O2341   1.262       .  A
N2330      O2342   1.262       .  A
C2332      C2333   1.393       .  A
C2332      N2337   1.430       .  S
C2333      C2334   1.406       .  A
C2333      H2338   1.084       .  S
C2334      C2335   1.416       .  A
C2335      C2336   1.401       .  A
C2335      N2339   1.429       .  S
C2336      H2340   1.084       .  S
N2337      O2347   1.262       .  A
N2337      O2348   1.262       .  A
N2339      O2345   1.262       .  A
N2339      O2346   1.262       .  A
C2349      C2350   1.402       .  A
C2349      C2354   1.399       .  A
C2349      H2359   1.084       .  S
C2350      C2355   1.492       .  S
C2350      C2351   1.411       .  A
C2351      C2352   1.406       .  A
C2351      N2356   1.428       .  S
C2352      C2353   1.408       .  A
C2352      H2357   1.084       .  S
C2353      C2354   1.418       .  A
C2354      N2358   1.429       .  S
C2355      C2360   1.411       .  A
C2355      C2364   1.406       .  A
N2356      O2371   1.262       .  A
N2356      O2372   1.261       .  A
N2358      O2369   1.262       .  A
C2360      C2361   1.397       .  A
C2360      N2365   1.430       .  S
C2361      C2362   1.407       .  A
C2361      H2366   1.084       .  S
C2362      C2363   1.417       .  A
C2363      C2364   1.407       .  A
C2363      N2367   1.429       .  S
C2364      H2368   1.084       .  S
N2365      O2375   1.262       .  A
N2365      O2376   1.262       .  A
N2367      O2373   1.262       .  A
N2367      O2374   1.262       .  A
C2377      C2378   1.404       .  A
C2377      C2382   1.409       .  A
C2377      H2387   1.084       .  S
C2378      C2383   1.481       .  S
C2378      C2379   1.404       .  A
C2379      C2380   1.396       .  A
C2379      N2384   1.430       .  S
C2380      C2381   1.410       .  A
C2380      H2385   1.084       .  S
C2381      C2382   1.417       .  A
C2382      N2386   1.428       .  S
C2383      C2388   1.409       .  A
C2383      C2392   1.398       .  A
N2384      O2399   1.262       .  A
N2384      O2400   1.261       .  A
N2386      O2397   1.262       .  A
N2386      O2398   1.262       .  A
C2388      C2389   1.405       .  A
C2388      N2393   1.428       .  S
C2389      C2390   1.406       .  A
C2389      H2394   1.084       .  S
C2390      C2391   1.417       .  A
C2391      C2392   1.399       .  A
C2391      N2395   1.430       .  S
C2392      H2396   1.084       .  S
N2393      O2403   1.262       .  A
N2393      O2404   1.261       .  A
N2395      O2401   1.262       .  A
N2395      O2402   1.262       .  A
C2405      C2406   1.403       .  A
C2405      C2410   1.398       .  A
C2405      H2415   1.084       .  S
C2406      C2411   1.480       .  S
C2406      C2407   1.408       .  A
C2407      C2408   1.400       .  A
C2407      N2412   1.428       .  S
C2408      C2409   1.404       .  A
C2408      H2413   1.084       .  S
C2409      C2410   1.411       .  A
C2410      N2414   1.431       .  S
C2411      C2416   1.407       .  A
C2411      C2420   1.402       .  A
N2412      O2427   1.262       .  A
N2412      O2428   1.262       .  A
N2414      O2425   1.262       .  A
N2414      O2426   1.262       .  A
C2416      C2417   1.396       .  A
C2416      N2421   1.430       .  S
C2417      C2418   1.406       .  A
C2417      H2422   1.084       .  S
C2418      C2419   1.416       .  A
C2419      C2420   1.403       .  A
C2419      N2423   1.429       .  S
C2420      H2424   1.084       .  S
N2421      O2431   1.262       .  A
N2421      O2432   1.262       .  A
N2423      O2429   1.262       .  A
N2423      O2430   1.262       .  A
C2433      C2434   1.406       .  A
C2433      C2438   1.407       .  A
C2433      H2443   1.084       .  S
C2434      C2439   1.482       .  S
C2434      C2435   1.408       .  A
C2435      C2436   1.394       .  A
C2435      N2440   1.430       .  S
C2436      C2437   1.403       .  A
C2436      H2441   1.085       .  S
C2437      C2438   1.412       .  A
C2438      N2442   1.429       .  S
C2439      C2444   1.408       .  A
C2439      C2448   1.401       .  A
N2440      O2455   1.262       .  A
N2440      O2456   1.262       .  A
N2442      O2453   1.262       .  A
N2442      O2454   1.262       .  A
C2444      C2445   1.404       .  A
C2444      N2449   1.428       .  S
C2445      C2446   1.407       .  A
C2445      H2450   1.084       .  S
C2446      C2447   1.415       .  A
C2447      C2448   1.395       .  A
C2447      N2451   1.430       .  S
C2448      H2452   1.085       .  S
N2449      O2459   1.262       .  A
N2449      O2460   1.262       .  A
N2451      O2457   1.262       .  A
N2451      O2458   1.261       .  A
C2461      C2462   1.402       .  A
C2461      C2466   1.400       .  A
C2461      H2471   1.084       .  S
C2462      C2467   1.483       .  S
C2462      C2463   1.409       .  A
C2463      C2464   1.398       .  A
C2463      N2468   1.430       .  S
C2464      C2465   1.405       .  A
C2464      H2469   1.084       .  S
C2465      C2466   1.418       .  A
C2466      N2470   1.430       .  S
C2467      C2472   1.409       .  A
C2467      C2476   1.404       .  A
N2468      O2483   1.262       .  A
N2468      O2484   1.262       .  A
N2470      O2481   1.262       .  A
N2470      O2482   1.262       .  A
C2472      C2473   1.398       .  A
C2472      N2477   1.429       .  S
C2473      C2474   1.405       .  A
C2473      H2478   1.085       .  S
C2474      C2475   1.411       .  A
C2475      C2476   1.400       .  A
C2475      N2479   1.430       .  S
C2476      H2480   1.085       .  S
N2477      O2487   1.262       .  A
N2477      O2488   1.262       .  A
N2479      O2485   1.262       .  A
N2479      O2486   1.262       .  A
C2489      C2490   1.403       .  A
C2489      C2494   1.405       .  A
C2489      H2499   1.084       .  S
C2490      C2495   1.481       .  S
C2490      C2491   1.407       .  A
C2491      C2492   1.399       .  A
C2491      N2496   1.429       .  S
C2492      C2493   1.405       .  A
C2492      H2497   1.084       .  S
C2493      C2494   1.413       .  A
C2494      N2498   1.429       .  S
C2495      C2500   1.409       .  A
C2495      C2504   1.398       .  A
N2496      O2511   1.262       .  A
N2496      O2512   1.262       .  A
N2498      O2509   1.262       .  A
N2498      O2510   1.262       .  A
C2500      C2501   1.404       .  A
C2500      N2505   1.428       .  S
C2501      C2502   1.406       .  A
C2501      H2506   1.084       .  S
C2502      C2503   1.418       .  A
C2503      C2504   1.399       .  A
C2503      N2507   1.429       .  S
C2504      H2508   1.085       .  S
N2505      O2515   1.262       .  A
N2505      O2516   1.262       .  A
N2507      O2513   1.262       .  A
N2507      O2514   1.262       .  A
C2517      C2518   1.403       .  A
C2517      C2522   1.405       .  A
C2517      H2527   1.084       .  S
C2518      C2523   1.485       .  S
C2518      C2519   1.408       .  A
C2519      C2520   1.397       .  A
C2519      N2524   1.429       .  S
C2520      C2521   1.407       .  A
C2520      H2525   1.084       .  S
C2521      C2522   1.416       .  A
C2522      N2526   1.428       .  S
C2523      C2528   1.409       .  A
C2523      C2532   1.403       .  A
N2524      O2539   1.262       .  A
N2524      O2540   1.262       .  A
N2526      O2537   1.262       .  A
N2526      O2538   1.262       .  A
C2528      C2529   1.404       .  A
C2528      N2533   1.429       .  S
C2529      C2530   1.407       .  A
C2529      H2534   1.084       .  S
C2530      C2531   1.412       .  A
C2531      C2532   1.399       .  A
C2531      N2535   1.429       .  S
C2532      H2536   1.084       .  S
N2533      O2543   1.262       .  A
N2533      O2544   1.262       .  A
N2535      O2541   1.262       .  A
N2535      O2542   1.262       .  A
