geometry optimzed in LAMMPS
_audit_creation_date              2020-12-01 
_audit_creation_method            'lammps2cif' 
_symmetry_space_group_name_H-M    'P1' 
_symmetry_Int_Tables_number       1 
_symmetry_cell_setting            triclinic 
loop_ 
_symmetry_equiv_pos_as_xyz 
  x,y,z 
_cell_length_a                    46.45446426 
_cell_length_b                    46.64523942670803 
_cell_length_c                    46.49767921730428 
_cell_angle_alpha                 90.13441976535161 
_cell_angle_beta                  89.78564132273023 
_cell_angle_gamma                 90.1084617636971 
loop_ 
_atom_site_label 
_atom_site_type_symbol 
_atom_site_fract_x 
_atom_site_fract_y 
_atom_site_fract_z 
_atom_site_charge 
O1          O  0.20269823  0.79379191  0.58529765    -0.85500
O2          O  0.21053329  0.74207438  0.55940917    -0.82500
C3          C  0.19844788  0.72603596  0.57750293     0.98000
O4          O  0.17121254  0.72507815  0.57946059    -0.82500
O5          O  0.11391776  0.74379866  0.57537586    -0.85200
C6          C  0.11098200  0.76081136  0.59637161     1.02500
O7          O  0.12346378  0.78486430  0.59549928    -0.78000
O8          O  0.16631659  0.82352294  0.58458110    -0.78100
C9          C  0.18766190  0.81278709  0.59750937     1.02500
O10         O  0.19555627  0.81984664  0.52893890    -0.85500
O11         O  0.19865100  0.76419693  0.50463861    -0.82500
C12         C  0.19202126  0.73805195  0.50059249     0.98000
O13         O  0.17497884  0.72557766  0.51780853    -0.82600
O14         O  0.12131458  0.75105629  0.51414315    -0.85200
C15         C  0.10383884  0.77190101  0.51495388     1.02500
O16         O  0.10442536  0.78940458  0.53585147    -0.78000
O17         O  0.14919524  0.82612639  0.52443065    -0.78100
C18         C  0.17467491  0.83316080  0.51785933     1.02400
Cr19       Cr  0.19854958  0.77998721  0.54490053     1.93700
Cr20       Cr  0.14640731  0.73924703  0.54698742     1.93200
Cr21       Cr  0.13778693  0.80355210  0.55925969     1.39100
O22         O  0.16083405  0.77440396  0.55001070    -1.23200
O23         O  0.31352509  0.89035453  0.78610119    -0.85500
O24         O  0.26141738  0.91437062  0.77486912    -0.82500
C25         C  0.24493278  0.89592938  0.78594701     0.98000
O26         O  0.24319323  0.89357460  0.81305409    -0.82500
O27         O  0.25937357  0.89906780  0.87075986    -0.85200
C28         C  0.27684771  0.87849994  0.87319742     1.02500
O29         O  0.30158927  0.88049681  0.86221475    -0.78000
O30         O  0.34265825  0.89435426  0.82277498    -0.78100
C31         C  0.33354513  0.88034956  0.80132588     1.02500
O32         O  0.33784172  0.94640732  0.79433666    -0.85500
O33         O  0.28257495  0.96974829  0.78886289    -0.82500
C34         C  0.25608766  0.97347450  0.79432082     0.98000
O35         O  0.24239137  0.95501915  0.80884863    -0.82600
O36         O  0.26431922  0.96027641  0.86348017    -0.85200
C37         C  0.28379540  0.96011263  0.88245110     1.02500
O38         O  0.30160372  0.93954854  0.88329441    -0.78000
O39         O  0.34013531  0.95371364  0.84070641    -0.78100
C40         C  0.34899623  0.95909438  0.81559642     1.02400
Cr41       Cr  0.29854705  0.92994551  0.78897182     1.93700
Cr42       Cr  0.25502453  0.92677356  0.83826359     1.93200
Cr43       Cr  0.31927579  0.91765208  0.85045711     1.39100
O44         O  0.29103841  0.92506884  0.82598957    -1.23200
O45         O  0.40831271  0.68168550  0.65415447    -0.85500
O46         O  0.40747441  0.69208499  0.71116598    -0.82500
C47         C  0.41160327  0.69072792  0.73773173     0.98000
O48         O  0.43009209  0.67343849  0.74790411    -0.82500
O49         O  0.41067416  0.61959272  0.73379567    -0.85200
C50         C  0.40126579  0.59959876  0.71821374     1.02500
O51         O  0.41364241  0.59424858  0.69438347    -0.78000
O52         O  0.39329036  0.63822903  0.66247436    -0.78100
C53         C  0.38802310  0.66333331  0.65440095     1.02500
O54         O  0.47135427  0.68084492  0.65660627    -0.85500
O55         O  0.46921600  0.69835599  0.71445884    -0.82500
C56         C  0.48786579  0.68399044  0.72831751     0.98000
O57         O  0.48651413  0.65704451  0.72787427    -0.82600
O58         O  0.46928696  0.60145164  0.71735596    -0.85200
C59         C  0.48057209  0.59481822  0.69316600     1.02500
O60         O  0.47066929  0.60548506  0.67043224    -0.78000
O61         O  0.44920052  0.64593699  0.63401289    -0.78100
C62         C  0.46873489  0.66513574  0.63461266     1.02400
Cr63       Cr  0.43946811  0.68557619  0.68454286     1.93700
Cr64       Cr  0.44849873  0.63833739  0.72914089     1.93200
Cr65       Cr  0.43233771  0.62285816  0.66715419     1.39100
O66         O  0.44044421  0.64884084  0.69361109    -1.23200
O67         O  0.81775409  0.57987384  0.19724328    -0.85500
O68         O  0.76429166  0.55747975  0.20507831    -0.82500
C69         C  0.74777706  0.57490905  0.19262025     0.98000
O70         O  0.74726034  0.57661955  0.16538198    -0.82500
O71         O  0.76648872  0.56902419  0.10826517    -0.85200
C72         C  0.78327476  0.59020817  0.10632865     1.02500
O73         O  0.80708288  0.58958508  0.11920375    -0.78000
O74         O  0.84698017  0.57702278  0.16026535    -0.78100
C75         C  0.83789475  0.59023236  0.18222495     1.02500
O76         O  0.84070849  0.52298239  0.18999845    -0.85500
O77         O  0.78443957  0.50125733  0.19342078    -0.82500
C78         C  0.75815888  0.49798984  0.18699658     0.98000
O79         O  0.74564939  0.51612689  0.17138996    -0.82600
O80         O  0.77183553  0.50841144  0.11891813    -0.85200
C81         C  0.79241867  0.50811514  0.10100287     1.02500
O82         O  0.80931592  0.52950317  0.09957366    -0.78000
O83         O  0.84641999  0.51773325  0.14353418    -0.78100
C84         C  0.85375510  0.51171413  0.16894203     1.02400
Cr85       Cr  0.80162682  0.54064825  0.19340145     1.93700
Cr86       Cr  0.76062318  0.54286958  0.14188678     1.93200
Cr87       Cr  0.82509244  0.55289657  0.13240311     1.39100
O88         O  0.79595138  0.54533424  0.15597913    -1.23200
O89         O  0.70463543  0.66877696  0.39422463    -0.85500
O90         O  0.71578928  0.71988021  0.42010708    -0.82500
C91         C  0.70369967  0.73744446  0.40356658     0.98000
O92         O  0.67652662  0.73897719  0.40239271    -0.82500
O93         O  0.61927209  0.72072388  0.40679817    -0.85200
C94         C  0.61620931  0.70343832  0.38603225     1.02500
O95         O  0.62799606  0.67919754  0.38685055    -0.78000
O96         O  0.66856361  0.63896495  0.39784050    -0.78100
C97         C  0.68900181  0.64954343  0.38328790     1.02500
O98         O  0.69819553  0.64217988  0.45069335    -0.85500
O99         O  0.70406788  0.69701637  0.47497410    -0.82500
C100        C  0.69807525  0.72303533  0.48008582     0.98000
O101        O  0.68118942  0.73674511  0.46384618    -0.82600
O102        O  0.62682655  0.71355877  0.46784909    -0.85200
C103        C  0.60810972  0.69386693  0.46708520     1.02500
O104        O  0.60795626  0.67602573  0.44644267    -0.78000
O105        O  0.65172565  0.63833931  0.45772071    -0.78100
C106        C  0.67700918  0.62997405  0.46282801     1.02400
Cr107      Cr  0.70253816  0.68211613  0.43477253     1.93700
Cr108      Cr  0.65189001  0.72462486  0.43487777     1.93200
Cr109      Cr  0.64094828  0.66051395  0.42294440     1.39100
O110        O  0.66505767  0.68904426  0.43128994    -1.23200
O111        O  0.91015229  0.79352009  0.32769844    -0.85500
O112        O  0.90859559  0.78160848  0.27070622    -0.82500
C113        C  0.91302918  0.78185441  0.24411053     0.98000
O114        O  0.93122686  0.79918829  0.23332993    -0.82500
O115        O  0.91011634  0.85269461  0.24680653    -0.85200
C116        C  0.90056427  0.87273040  0.26230428     1.02500
O117        O  0.91384039  0.87946967  0.28524823    -0.78000
O118        O  0.89491335  0.83692845  0.31969418    -0.78100
C119        C  0.89001418  0.81192810  0.32831593     1.02500
O120        O  0.97276785  0.79473665  0.32365456    -0.85500
O121        O  0.97060031  0.77658144  0.26700232    -0.82500
C122        C  0.98927790  0.79110348  0.25316783     0.98000
O123        O  0.98706878  0.81797531  0.25221734    -0.82600
O124        O  0.96840434  0.87323555  0.26083286    -0.85200
C125        C  0.98088228  0.87990265  0.28427759     1.02500
O126        O  0.97183891  0.86958030  0.30760963    -0.78000
O127        O  0.95167971  0.83026393  0.34624472    -0.78100
C128        C  0.97066857  0.81056121  0.34551512     1.02400
Cr129      Cr  0.94072517  0.78924090  0.29671550     1.93700
Cr130      Cr  0.94856485  0.83538991  0.25086888     1.93200
Cr131      Cr  0.93370378  0.85224876  0.31291541     1.39100
O132        O  0.94123276  0.82568967  0.28686721    -1.23200
O133        O  0.58983142  0.17447564  0.82299266    -0.85500
O134        O  0.59078151  0.18719303  0.76649814    -0.82500
C135        C  0.58743168  0.18616269  0.73977887     0.98000
O136        O  0.56957155  0.16858278  0.72884094    -0.82500
O137        O  0.59059252  0.11518916  0.74230084    -0.85200
C138        C  0.59961707  0.09473781  0.75736535     1.02500
O139        O  0.58635071  0.08820817  0.78037672    -0.78000
O140        O  0.60619746  0.13153545  0.81400610    -0.78100
C141        C  0.61051633  0.15669930  0.82269289     1.02500
O142        O  0.52734444  0.17228829  0.82047345    -0.85500
O143        O  0.52881231  0.19084054  0.76371208    -0.82500
C144        C  0.51050147  0.17623334  0.74959756     0.98000
O145        O  0.51346286  0.14949844  0.74763164    -0.82600
O146        O  0.53257157  0.09473809  0.75685509    -0.85200
C147        C  0.51970300  0.08902313  0.78037546     1.02500
O148        O  0.52901021  0.09879929  0.80380809    -0.78000
O149        O  0.55028861  0.13770877  0.84224655    -0.78100
C150        C  0.53084991  0.15691186  0.84243705     1.02400
Cr151      Cr  0.55899051  0.17858553  0.79277828     1.93700
Cr152      Cr  0.55216452  0.13244426  0.74647609     1.93200
Cr153      Cr  0.56733105  0.11580512  0.80834183     1.39100
O154        O  0.55924847  0.14225258  0.78250146    -1.23200
O155        O  0.79513842  0.30010076  0.89915592    -0.85500
O156        O  0.78165612  0.24940386  0.92585029    -0.82500
C157        C  0.79189859  0.23088488  0.90896119     0.98000
O158        O  0.81879825  0.22816012  0.90613916    -0.82500
O159        O  0.87643609  0.24240667  0.90776934    -0.85200
C160        C  0.88083270  0.25998442  0.88751001     1.02500
O161        O  0.87240753  0.28561212  0.88986076    -0.78000
O162        O  0.83321504  0.32772246  0.90213053    -0.78100
C163        C  0.81127712  0.31918087  0.88853487     1.02500
O164        O  0.80400122  0.32627317  0.95460165    -0.85500
O165        O  0.79603359  0.27195972  0.97994323    -0.82500
C166        C  0.80075708  0.24569658  0.98511860     0.98000
O167        O  0.81615220  0.23080783  0.96822220    -0.82600
O168        O  0.87167120  0.25037738  0.96988064    -0.85200
C169        C  0.89079105  0.26965512  0.96941779     1.02500
O170        O  0.89198884  0.28723736  0.94881000    -0.78000
O171        O  0.85033164  0.32698536  0.96201904    -0.78100
C172        C  0.82558650  0.33707398  0.96707450     1.02400
Cr173      Cr  0.79737847  0.28647167  0.93950663     1.93700
Cr174      Cr  0.84511392  0.24093058  0.93772704     1.93200
Cr175      Cr  0.85990465  0.30461142  0.92644636     1.39100
O176        O  0.83426079  0.27732935  0.93471946    -1.23200
O177        O  0.66600294  0.39490564  0.68894482    -0.85500
O178        O  0.72312961  0.39332474  0.70013130    -0.82500
C179        C  0.74988299  0.39670163  0.69848074     0.98000
O180        O  0.76058186  0.41445790  0.68071308    -0.82500
O181        O  0.74598140  0.39309018  0.62755362    -0.85200
C182        C  0.72998204  0.38369471  0.60786018     1.02500
O183        O  0.70724612  0.39729993  0.60143957    -0.78000
O184        O  0.67376782  0.37842852  0.64567677    -0.78100
C185        C  0.66534455  0.37430095  0.67107324     1.02500
O186        O  0.66961948  0.45707688  0.68668520    -0.85500
O187        O  0.72686807  0.45496737  0.70430955    -0.82500
C188        C  0.74108313  0.47300275  0.68944997     0.98000
O189        O  0.74201808  0.47023666  0.66250301    -0.82600
O190        O  0.73175526  0.45157638  0.60725566    -0.85200
C191        C  0.70812090  0.46402897  0.60121455     1.02500
O192        O  0.68487805  0.45485228  0.61176695    -0.78000
O193        O  0.64691071  0.43493992  0.65192004    -0.78100
C194        C  0.64762525  0.45452484  0.67105538     1.02400
Cr195      Cr  0.69698122  0.42524514  0.69231702     1.93700
Cr196      Cr  0.74247590  0.43174959  0.64494188     1.93200
Cr197      Cr  0.68005912  0.41697943  0.62951125     1.39100
O198        O  0.70651481  0.42495421  0.65555697    -1.23200
O199        O  0.30165934  0.14575365  0.08060723    -0.85500
O200        O  0.29269361  0.20305603  0.08149476    -0.82500
C201        C  0.29474531  0.22959083  0.07772784     0.98000
O202        O  0.31340343  0.23951699  0.06027738    -0.82500
O203        O  0.36618586  0.22246695  0.08153256    -0.85200
C204        C  0.38596713  0.20635508  0.09033125     1.02500
O205        O  0.39118018  0.18305380  0.07711830    -0.78000
O206        O  0.34572322  0.15138473  0.09580468    -0.78100
C207        C  0.32012202  0.14403443  0.10070718     1.02500
O208        O  0.30442951  0.14901492  0.01758991    -0.85500
O209        O  0.28946477  0.20707366  0.01978135    -0.82500
C210        C  0.30489641  0.22134481  0.00215109     0.98000
O211        O  0.33188473  0.22050984  0.00425320    -0.82600
O212        O  0.38654796  0.20791221  0.02347203    -0.85200
C213        C  0.39298393  0.18422071  0.01131216     1.02500
O214        O  0.38079310  0.16142465  0.01939793    -0.78000
O215        O  0.33839866  0.12500018  0.03949390    -0.78100
C216        C  0.31899200  0.12641168  0.02031035     1.02400
Cr217      Cr  0.29982092  0.17657722  0.04956398     1.93700
Cr218      Cr  0.34891554  0.21993861  0.04297986     1.93200
Cr219      Cr  0.36214951  0.15715092  0.05727288     1.39100
O220        O  0.33699851  0.18451449  0.04960052    -1.23200
O221        O  0.08520524  0.28160634  0.15524598    -0.85500
O222        O  0.08745531  0.27124379  0.21240060    -0.82500
C223        C  0.08405032  0.27251618  0.23912821     0.98000
O224        O  0.06476896  0.28869862  0.24991535    -0.82500
O225        O  0.08437814  0.34204878  0.23608505    -0.85200
C226        C  0.09426243  0.36153680  0.22025559     1.02500
O227        O  0.08143558  0.36787941  0.19706041    -0.78000
O228        O  0.10088310  0.32502531  0.16293886    -0.78100
C229        C  0.10520321  0.30013223  0.15364479     1.02500
O230        O  0.02296765  0.28237259  0.15987212    -0.85500
O231        O  0.02576718  0.26486091  0.21656348    -0.82500
C232        C  0.00654325  0.27883946  0.23012504     0.98000
O233        O  0.00795659  0.30583188  0.23092541    -0.82600
O234        O  0.02661556  0.36182620  0.22142381    -0.85200
C235        C  0.01532808  0.36889689  0.19754792     1.02500
O236        O  0.02410278  0.35780175  0.17449191    -0.78000
O237        O  0.04424527  0.31760636  0.13686888    -0.78100
C238        C  0.02525858  0.29789463  0.13788029     1.02400
Cr239      Cr  0.05510062  0.27763397  0.18661533     1.93700
Cr240      Cr  0.04639573  0.32416485  0.23198046     1.93200
Cr241      Cr  0.06201054  0.34025717  0.16971556     1.39100
O242        O  0.05418648  0.31414636  0.19607259    -1.23200
O243        O  0.19214854  0.07761918  0.28916191    -0.85500
O244        O  0.24453826  0.05268266  0.28026119    -0.82500
C245        C  0.26089505  0.07014457  0.29296228     0.98000
O246        O  0.26238087  0.07052596  0.32023561    -0.82500
O247        O  0.24440736  0.06256072  0.37767945    -0.85200
C248        C  0.22830723  0.08406522  0.38100849     1.02500
O249        O  0.20410725  0.08430629  0.36886292    -0.78000
O250        O  0.16400382  0.07656051  0.32721419    -0.78100
C251        C  0.17307266  0.08905475  0.30485164     1.02500
O252        O  0.16643839  0.02179405  0.29465545    -0.85500
O253        O  0.22118946  0.99714673  0.29096416    -0.82500
C254        C  0.24731407  0.99241713  0.29699171     0.98000
O255        O  0.26086266  0.00997189  0.31255845    -0.82600
O256        O  0.23543381  0.00238207  0.36576139    -0.85200
C257        C  0.21485509  0.00233102  0.38376232     1.02500
O258        O  0.19801343  0.02371815  0.38527257    -0.78000
O259        O  0.15923829  0.01681841  0.34101912    -0.78100
C260        C  0.15197633  0.01174391  0.31533230     1.02400
Cr261      Cr  0.20634985  0.03749954  0.29198605     1.93700
Cr262      Cr  0.24787197  0.03677180  0.34314068     1.93200
Cr263      Cr  0.18380975  0.04957834  0.35372170     1.39100
O264        O  0.21240770  0.04110332  0.32962379    -1.23200
O265        O  0.04675449  0.09000582  0.68372864    -0.85500
O266        O  0.03256399  0.13167861  0.64526522    -0.82500
C267        C  0.02596865  0.15626257  0.63632574     0.98000
O268        O  0.03600905  0.17837607  0.64847497    -0.82500
O269        O  0.01176376  0.18349020  0.70443663    -0.85200
C270        C  0.00789192  0.17758706  0.73086161     1.02500
O271        O  0.02649893  0.16308424  0.74413619    -0.78000
O272        O  0.02425366  0.10928665  0.72036565    -0.78100
C273        C  0.02511698  0.09088635  0.70035467     1.02500
O274        O  0.10519976  0.11271288  0.68539280    -0.85500
O275        O  0.09148915  0.15175390  0.64461621    -0.82500
C276        C  0.10363230  0.17437380  0.65348614     0.98000
O277        O  0.09182830  0.18968848  0.67261257    -0.82600
O278        O  0.06690721  0.19933837  0.72502259    -0.85200
C279        C  0.08504230  0.18878064  0.74203648     1.02500
O280        O  0.08786121  0.16186800  0.74439089    -0.78000
O281        O  0.08614859  0.10449766  0.72758338    -0.78100
C282        C  0.10718557  0.10270541  0.71039056     1.02400
Cr283      Cr  0.06817486  0.12351680  0.66711753     1.93700
Cr284      Cr  0.05202076  0.18462986  0.68791373     1.93200
Cr285      Cr  0.05645204  0.13538510  0.73124646     1.39100
O286        O  0.05881834  0.14786280  0.69533499    -1.23200
O287        O  0.18024596  0.45337270  0.87799695    -0.85500
O288        O  0.14442231  0.43548095  0.83509336    -0.82500
C289        C  0.14535074  0.45594810  0.81713685     0.98000
O290        O  0.16777045  0.45995749  0.80228193    -0.82500
O291        O  0.22580274  0.45948906  0.78554467    -0.85200
C292        C  0.24010332  0.47645123  0.80151340     1.02500
O293        O  0.23969804  0.47270680  0.82828302    -0.78000
O294        O  0.22734229  0.45190698  0.88203688    -0.78100
C295        C  0.20309192  0.46229765  0.88944577     1.02500
O296        O  0.20273246  0.39623320  0.88506426    -0.85500
O297        O  0.17151000  0.37946222  0.83854183    -0.82500
C298        C  0.16288796  0.37668703  0.81308905     0.98000
O299        O  0.16488427  0.39781447  0.79594498    -0.82600
O300        O  0.22262190  0.39804139  0.78612415    -0.85200
C301        C  0.24934378  0.40128393  0.78865400     1.02500
O302        O  0.25941092  0.41744871  0.80832174    -0.78000
O303        O  0.24387469  0.39509816  0.86184870    -0.78100
C304        C  0.22744721  0.38539580  0.88118282     1.02400
Cr305      Cr  0.17684622  0.41690024  0.85722147     1.93700
Cr306      Cr  0.19576421  0.42889754  0.79538633     1.93200
Cr307      Cr  0.23979881  0.43360140  0.84433182     1.39100
O308        O  0.20422773  0.42660332  0.83242302    -1.23200
O309        O  0.38431197  0.30297708  0.52040953    -0.85500
O310        O  0.34399889  0.34186649  0.53838395    -0.82500
C311        C  0.32452134  0.34014305  0.51918873     0.98000
O312        O  0.30913290  0.31794870  0.51766949    -0.82500
O313        O  0.29164373  0.26112838  0.52178214    -0.85200
C314        C  0.30668973  0.24647147  0.50410725     1.02500
O315        O  0.33359645  0.24559267  0.50712713    -0.78000
O316        O  0.38871067  0.25658522  0.52597627    -0.78100
C317        C  0.39561933  0.27963692  0.51290420     1.02500
O318        O  0.39416520  0.28322354  0.57892763    -0.85500
O319        O  0.35033520  0.31798249  0.59619601    -0.82500
C320        C  0.32520558  0.32705989  0.60015833     0.98000
O321        O  0.30675659  0.32450726  0.58011465    -0.82600
O322        O  0.29517665  0.26754962  0.58369629    -0.85200
C323        C  0.29621876  0.24079143  0.58122268     1.02500
O324        O  0.31416728  0.22942965  0.56387801    -0.78000
O325        O  0.36744031  0.24495785  0.58467733    -0.78100
C326        C  0.38785458  0.26065646  0.59292520     1.02400
Cr327      Cr  0.36632468  0.30959341  0.55793689     1.93700
Cr328      Cr  0.30337594  0.29222296  0.55068591     1.93200
Cr329      Cr  0.35049183  0.24679878  0.54591051     1.39100
O330        O  0.34010704  0.28288157  0.55127235    -1.23200
O331        O  0.69318281  0.02442944  0.09872802    -0.85500
O332        O  0.65245183  0.01208714  0.14015783    -0.82500
C333        C  0.64336179  0.00614289  0.16512926     0.98000
O334        O  0.65470849  0.01798265  0.18674544    -0.82500
O335        O  0.71092320  0.99583733  0.19287741    -0.85200
C336        C  0.73762078  0.99285361  0.18774198     1.02500
O337        O  0.75127994  0.01232655  0.17469427    -0.78000
O338        O  0.73095964  0.00554461  0.11972898    -0.78100
C339        C  0.71185117  0.00463428  0.10037388     1.02500
O340        O  0.69297850  0.08475369  0.11739144    -0.85500
O341        O  0.65102931  0.07246759  0.15654103    -0.82500
C342        C  0.65905593  0.08572751  0.17892736     0.98000
O343        O  0.67739636  0.07466145  0.19552238    -0.82600
O344        O  0.72984724  0.05216842  0.20747193    -0.85200
C345        C  0.74455240  0.07223282  0.19676243     1.02500
O346        O  0.74842932  0.07355982  0.16976870    -0.78000
O347        O  0.73564417  0.06661683  0.11117040    -0.78100
C348        C  0.71815501  0.08690003  0.10731852     1.02400
Cr349      Cr  0.67463077  0.04779052  0.13016738     1.93700
Cr350      Cr  0.69361130  0.03538634  0.19260863     1.93200
Cr351      Cr  0.73869414  0.03969550  0.14460461     1.39100
O352        O  0.70210082  0.04071760  0.15568139    -1.23200
O353        O  0.88801361  0.17111041  0.44928409    -0.85500
O354        O  0.84319709  0.13427364  0.45949829    -0.82500
C355        C  0.81766016  0.12653143  0.46463993     0.98000
O356        O  0.79702456  0.13985647  0.45324879    -0.82500
O357        O  0.79404828  0.19367868  0.48134512    -0.85200
C358        C  0.80082446  0.21946274  0.48713966     1.02500
O359        O  0.81731767  0.23339152  0.47048647    -0.78000
O360        O  0.87078295  0.20878100  0.47191237    -0.78100
C361        C  0.88870180  0.18848049  0.47029966     1.02500
O362        O  0.86865991  0.17745861  0.39019505    -0.85500
O363        O  0.82590624  0.13820233  0.39955469    -0.82500
C364        C  0.80503930  0.14993698  0.38670907     0.98000
O365        O  0.79072107  0.16939089  0.39909157    -0.82600
O366        O  0.78204490  0.21925647  0.42851550    -0.85200
C367        C  0.79352916  0.23694373  0.41162694     1.02500
O368        O  0.82062344  0.23758209  0.40858745    -0.78000
O369        O  0.87771217  0.21830891  0.41127069    -0.78100
C370        C  0.88092916  0.20158907  0.39008647     1.02400
Cr371      Cr  0.85459192  0.15763715  0.42550991     1.93700
Cr372      Cr  0.79409616  0.18058800  0.44020286     1.93200
Cr373      Cr  0.84560778  0.22167255  0.44007833     1.39100
O374        O  0.83158913  0.18652772  0.43561522    -1.23200
O375        O  0.53102734  0.36521320  0.30696790    -0.85500
O376        O  0.55024505  0.32324666  0.34360518    -0.82500
C377        C  0.53038411  0.30444556  0.34255357     0.98000
O378        O  0.52693880  0.28994516  0.31990041    -0.82500
O379        O  0.52945338  0.27335075  0.26229418    -0.85200
C380        C  0.51204144  0.28841522  0.24775636     1.02500
O381        O  0.51498088  0.31525421  0.24729511    -0.78000
O382        O  0.53428078  0.36926807  0.25990234    -0.78100
C383        C  0.52221691  0.37575313  0.28366196     1.02500
O384        O  0.58837420  0.37447247  0.28513222    -0.85500
O385        O  0.60681271  0.32889090  0.31648660    -0.82500
C386        C  0.61022468  0.30337369  0.32445305     0.98000
O387        O  0.58907283  0.28617475  0.32374640    -0.82600
O388        O  0.59117224  0.27605440  0.26636402    -0.85200
C389        C  0.58811407  0.27834137  0.23966850     1.02500
O390        O  0.57110868  0.29688809  0.22932584    -0.78000
O391        O  0.59258793  0.34936606  0.24570416    -0.78100
C392        C  0.60158650  0.36907034  0.26188309     1.02400
Cr393      Cr  0.56845947  0.34611451  0.31116081     1.93700
Cr394      Cr  0.55898297  0.28410997  0.29255907     1.93200
Cr395      Cr  0.55384076  0.33218717  0.24823929     1.39100
O396        O  0.55996918  0.32089529  0.28396883    -1.23200
O397        O  0.10729795  0.68253494  0.03596150    -0.85500
O398        O  0.14999830  0.64349332  0.02434171    -0.82500
C399        C  0.17488307  0.63332056  0.02067493     0.98000
O400        O  0.19610250  0.64434127  0.03364874    -0.82500
O401        O  0.20455773  0.69728816  0.00599986    -0.85200
C402        C  0.19922293  0.72305482  0.99924525     1.02500
O403        O  0.18303598  0.73847681  0.01484733    -0.78000
O404        O  0.12814516  0.71709100  0.01189611    -0.78100
C405        C  0.10828737  0.69870821  0.01422420     1.02500
O406        O  0.12688889  0.68666702  0.09435833    -0.85500
O407        O  0.16627165  0.64410709  0.08428633    -0.82500
C408        C  0.18657413  0.65463463  0.09894049     0.98000
O409        O  0.20249289  0.67376590  0.08814830    -0.82600
O410        O  0.21638339  0.72294348  0.05929154    -0.85200
C411        C  0.20499845  0.74218351  0.07455138     1.02500
O412        O  0.17791765  0.74443592  0.07625365    -0.78000
O413        O  0.12018981  0.72777950  0.07289817    -0.78100
C414        C  0.11591351  0.71138401  0.09421101     1.02400
Cr415      Cr  0.13960709  0.66631759  0.05895213     1.93700
Cr416      Cr  0.20192381  0.68491559  0.04700938     1.93200
Cr417      Cr  0.15309247  0.72918379  0.04447553     1.39100
O418        O  0.16483458  0.69351768  0.04990420    -1.23200
O419        O  0.45369172  0.87172198  0.18935842    -0.85500
O420        O  0.46957998  0.83088525  0.14972228    -0.82500
C421        C  0.47511990  0.80631672  0.13973593     0.98000
O422        O  0.46184490  0.78456251  0.14928270    -0.82500
O423        O  0.48447984  0.77436929  0.20391109    -0.85200
C424        C  0.48947736  0.77986943  0.23012061     1.02500
O425        O  0.47237030  0.79518066  0.24467324    -0.78000
O426        O  0.47701448  0.85015086  0.22367578    -0.78100
C427        C  0.47573688  0.86989293  0.20507328     1.02500
O428        O  0.39574213  0.84942908  0.18850416    -0.85500
O429        O  0.41061085  0.81273284  0.14518035    -0.82500
C430        C  0.39509462  0.79229656  0.15392812     0.98000
O431        O  0.40455171  0.77571122  0.17305497    -0.82600
O432        O  0.42837638  0.76118762  0.22437460    -0.85200
C433        C  0.41122525  0.77230106  0.24224676     1.02500
O434        O  0.41093482  0.79916473  0.24634122    -0.78000
O435        O  0.41489138  0.85638812  0.23089410    -0.78100
C436        C  0.39379072  0.85863158  0.21392622     1.02400
Cr437      Cr  0.43304144  0.83924188  0.17031350     1.93700
Cr438      Cr  0.44458766  0.77682864  0.18806026     1.93200
Cr439      Cr  0.44359682  0.82460076  0.23370518     1.39100
O440        O  0.44062717  0.81348967  0.19742836    -1.23200
O441        O  0.30198081  0.52373907  0.37873209    -0.85500
O442        O  0.33994583  0.51073887  0.33548230    -0.82500
C443        C  0.34819416  0.50445396  0.31034547     0.98000
O444        O  0.33575107  0.51545303  0.28887680    -0.82500
O445        O  0.28013336  0.49148635  0.28528904    -0.85200
C446        C  0.25391391  0.48739014  0.29186367     1.02500
O447        O  0.24044309  0.50587699  0.30654901    -0.78000
O448        O  0.26464169  0.50136271  0.36035835    -0.78100
C449        C  0.28477979  0.50257659  0.37861577     1.02500
O450        O  0.29911753  0.58275059  0.35806943    -0.85500
O451        O  0.34018637  0.56968588  0.31704583    -0.82500
C452        C  0.33019813  0.58269639  0.29550449     0.98000
O453        O  0.31036251  0.57160318  0.28070873    -0.82600
O454        O  0.25818681  0.54673202  0.27189587    -0.85200
C455        C  0.24331166  0.56608096  0.28367782     1.02500
O456        O  0.24095727  0.56727021  0.31082053    -0.78000
O457        O  0.25823658  0.56202941  0.36829565    -0.78100
C458        C  0.27520052  0.58302440  0.37106011     1.02400
Cr459      Cr  0.31800704  0.54604480  0.34548843     1.93700
Cr460      Cr  0.29592850  0.53159451  0.28463463     1.93200
Cr461      Cr  0.25375542  0.53441046  0.33548576     1.39100
O462        O  0.28939538  0.53701461  0.32192100    -1.23200
O463        O  0.60896416  0.79348519  0.94901037    -0.85500
O464        O  0.65487729  0.82952998  0.95804489    -0.82500
C465        C  0.68066519  0.83655687  0.96310110     0.98000
O466        O  0.70091590  0.82348470  0.95038780    -0.82500
O467        O  0.70445826  0.76947837  0.97636009    -0.85200
C468        C  0.69762981  0.74388928  0.98240181     1.02500
O469        O  0.67997254  0.73026410  0.96678299    -0.78000
O470        O  0.62754657  0.75668214  0.97155357    -0.78100
C471        C  0.60949725  0.77684830  0.97047923     1.02500
O472        O  0.62621515  0.78702349  0.88928601    -0.85500
O473        O  0.66963497  0.82583643  0.89734461    -0.82500
C474        C  0.68971574  0.81388084  0.88337481     0.98000
O475        O  0.70448072  0.79452087  0.89500357    -0.82600
O476        O  0.71324254  0.74395422  0.92191679    -0.85200
C477        C  0.69988062  0.72601922  0.90659536     1.02500
O478        O  0.67270138  0.72609023  0.90554162    -0.78000
O479        O  0.61667535  0.74686452  0.91131159    -0.78100
C480        C  0.61339261  0.76315308  0.88983803     1.02400
Cr481      Cr  0.64180078  0.80667274  0.92416899     1.93700
Cr482      Cr  0.70265100  0.78284871  0.93569466     1.93200
Cr483      Cr  0.65023005  0.74279869  0.93830279     1.39100
O484        O  0.66485393  0.77752487  0.93293853    -1.23200
O485        O  0.80682215  0.93825190  0.59770374    -0.85500
O486        O  0.84629165  0.95108292  0.63941868    -0.82500
C487        C  0.85563415  0.95688089  0.66417456     0.98000
O488        O  0.84414279  0.94527812  0.68586216    -0.82500
O489        O  0.78872616  0.97019759  0.69003151    -0.85200
C490        C  0.76215332  0.97353027  0.68462776     1.02500
O491        O  0.74802202  0.95370740  0.67255864    -0.78000
O492        O  0.76821922  0.95736383  0.61759159    -0.78100
C493        C  0.78755493  0.95753817  0.59834424     1.02500
O494        O  0.80626088  0.87886293  0.61711781    -0.85500
O495        O  0.84690246  0.89126433  0.65756975    -0.82500
C496        C  0.83697649  0.87848356  0.67949270     0.98000
O497        O  0.81815127  0.89019372  0.69516378    -0.82600
O498        O  0.76684694  0.91601923  0.70630614    -0.85200
C499        C  0.75305003  0.89477551  0.69691080     1.02500
O500        O  0.74968023  0.89181617  0.67001027    -0.78000
O501        O  0.76339932  0.89682057  0.61117693    -0.78100
C502        C  0.78158696  0.87743689  0.60608189     1.02400
Cr503      Cr  0.82438362  0.91555964  0.62990850     1.93700
Cr504      Cr  0.80424391  0.93008131  0.69150053     1.93200
Cr505      Cr  0.76002676  0.92465415  0.64365244     1.39100
O506        O  0.79640897  0.92371964  0.65475269    -1.23200
O507        O  0.97071658  0.60480195  0.81508196    -0.85500
O508        O  0.94922306  0.64319941  0.85327517    -0.82500
C509        C  0.96738310  0.66361032  0.85272542     0.98000
O510        O  0.96930530  0.67965131  0.83103673    -0.82500
O511        O  0.96691482  0.69749810  0.77370673    -0.85200
C512        C  0.98559592  0.68369280  0.75907948     1.02500
O513        O  0.98397254  0.65672687  0.75782585    -0.78000
O514        O  0.96737540  0.60069879  0.76823058    -0.78100
C515        C  0.97983494  0.59451721  0.79180580     1.02500
O516        O  0.91367659  0.59200444  0.79291376    -0.85500
O517        O  0.89298149  0.63465021  0.82710533    -0.82500
C518        C  0.88745533  0.65958746  0.83572883     0.98000
O519        O  0.90683932  0.67884244  0.83462019    -0.82600
O520        O  0.90515674  0.69042477  0.77785924    -0.85200
C521        C  0.90863244  0.68980652  0.75112401     1.02500
O522        O  0.92685876  0.67263296  0.74011250    -0.78000
O523        O  0.90816694  0.61838889  0.75458222    -0.78100
C524        C  0.90000431  0.59779957  0.77006850     1.02400
Cr525      Cr  0.93217736  0.62062821  0.82017375     1.93700
Cr526      Cr  0.93741333  0.68389456  0.80370708     1.93200
Cr527      Cr  0.94599849  0.63752229  0.75785154     1.39100
O528        O  0.93887473  0.64733965  0.79395021    -1.23200
C529        C  0.83453324  0.79935604  0.69711864    -0.27700
C530        C  0.86382214  0.79277131  0.70036926     0.01900
C531        C  0.88449009  0.81453111  0.69570808     0.30000
C532        C  0.87571366  0.84232505  0.68828103    -0.19500
C533        C  0.84639470  0.84904814  0.68627507    -0.28900
C534        C  0.82576987  0.82719349  0.69030838     0.44000
C535        C  0.87241685  0.76384747  0.71067999     0.05200
O536        O  0.91326136  0.80912003  0.69928323    -0.57400
H537        H  0.89178252  0.85887315  0.68502330     0.18100
O538        O  0.79693504  0.83279938  0.68749365    -0.64200
H539        H  0.81833969  0.78288250  0.70016755     0.16600
C540        C  0.86039883  0.75263568  0.73610715     0.28800
C541        C  0.87058883  0.72682986  0.74725949    -0.25100
C542        C  0.89345825  0.71197731  0.73407223    -0.24300
C543        C  0.90438486  0.72227944  0.70772196     0.40300
C544        C  0.89377950  0.74800093  0.69618655    -0.26800
O545        O  0.84063289  0.76809365  0.75171812    -0.58700
H546        H  0.86162568  0.71934520  0.76739784     0.15900
O547        O  0.92696405  0.70880012  0.69431096    -0.60100
H548        H  0.90302984  0.75615107  0.67640644     0.14400
H549        H  0.79296552  0.83107562  0.66657447     0.46200
H550        H  0.82203719  0.75802588  0.74900036     0.41600
H551        H  0.91813379  0.69731195  0.67873029     0.45000
H552        H  0.91676203  0.81144289  0.72019469     0.36500
C553        C  0.68667516  0.84980034  0.80967383    -0.27700
C554        C  0.70789783  0.83443791  0.79466166     0.01900
C555        C  0.72225127  0.81188876  0.80861882     0.30000
C556        C  0.71621148  0.80576124  0.83738423    -0.19500
C557        C  0.69575269  0.82176206  0.85296611    -0.28900
C558        C  0.68057762  0.84370698  0.83860416     0.44000
C559        C  0.71920159  0.84574788  0.76710653     0.05200
O560        O  0.74327799  0.79656518  0.79464983    -0.57400
H561        H  0.72789597  0.78846870  0.84754686     0.18100
O562        O  0.66011268  0.85968204  0.85263230    -0.64200
H563        H  0.67590862  0.86763330  0.79944168     0.16600
C564        C  0.70194951  0.85012388  0.74257586     0.28800
C565        C  0.71353390  0.86416847  0.71827821    -0.25100
C566        C  0.74199181  0.87444269  0.71869134    -0.24300
C567        C  0.75927172  0.86884525  0.74297838     0.40300
C568        C  0.74786677  0.85473334  0.76667502    -0.26800
O569        O  0.67388527  0.84096487  0.74228012    -0.58700
H570        H  0.69987926  0.86847109  0.69996330     0.15900
O571        O  0.78705361  0.87874293  0.74457711    -0.60100
H572        H  0.76128911  0.85199830  0.78549390     0.14400
H573        H  0.67045936  0.87689485  0.85975391     0.46200
H574        H  0.66224964  0.85822171  0.74673673     0.41600
H575        H  0.79935450  0.86151577  0.74277176     0.45000
H576        H  0.73299628  0.78062657  0.78495711     0.36500
C577        C  0.75041844  0.69550009  0.85224775    -0.27700
C578        C  0.76937930  0.68102025  0.87074176     0.01900
C579        C  0.76077465  0.67569498  0.89928455     0.30000
C580        C  0.73509796  0.68739647  0.90972351    -0.19500
C581        C  0.71757801  0.70428285  0.89207135    -0.28900
C582        C  0.72441556  0.70688887  0.86272082     0.44000
C583        C  0.79944172  0.67513548  0.86149779     0.05200
O584        O  0.77899888  0.66230225  0.91809931    -0.57400
H585        H  0.73033856  0.68572906  0.93251212     0.18100
O586        O  0.70763220  0.72327971  0.84500950    -0.64200
H587        H  0.75663818  0.69950230  0.83013497     0.16600
C588        C  0.81108353  0.64734243  0.86241982     0.28800
C589        C  0.83996841  0.64282203  0.85494499    -0.25100
C590        C  0.85791907  0.66576556  0.84659449    -0.24300
C591        C  0.84631044  0.69367920  0.84625768     0.40300
C592        C  0.81729654  0.69812005  0.85344225    -0.26800
O593        O  0.79438525  0.62441810  0.87045725    -0.58700
H594        H  0.84827263  0.62114011  0.85544798     0.15900
O595        O  0.86298160  0.71678061  0.83875813    -0.60100
H596        H  0.80876754  0.71972450  0.85310881     0.14400
H597        H  0.69568151  0.70935702  0.83417509     0.46200
H598        H  0.78500883  0.61775457  0.85251885     0.41600
H599        H  0.86025259  0.71903300  0.81778466     0.45000
H600        H  0.76994474  0.64348040  0.92215837     0.36500
C601        C  0.52296162  0.77206660  0.08270218    -0.27700
C602        C  0.53415894  0.79602914  0.06838951     0.01900
C603        C  0.52666011  0.82365278  0.07820662     0.30000
C604        C  0.50779332  0.82687206  0.10167167    -0.19500
C605        C  0.49626558  0.80275048  0.11584067    -0.28900
C606        C  0.50466494  0.77516184  0.10638165     0.44000
C607        C  0.55361214  0.79157924  0.04334138     0.05200
O608        O  0.53764135  0.84760821  0.06505026    -0.57400
H609        H  0.50202572  0.84830279  0.10860544     0.18100
O610        O  0.49497391  0.75086996  0.11989359    -0.64200
H611        H  0.52829226  0.75066429  0.07535277     0.16600
C612        C  0.57792575  0.77374290  0.04559259     0.28800
C613        C  0.59548415  0.76882656  0.02158915    -0.25100
C614        C  0.58925227  0.78132509  0.99486802    -0.24300
C615        C  0.56464043  0.79892739  0.99251955     0.40300
C616        C  0.54716822  0.80401347  0.01666533    -0.26800
O617        O  0.58537408  0.76196918  0.07153875    -0.58700
H618        H  0.61440757  0.75554181  0.02413960     0.15900
O619        O  0.55735882  0.81122963  0.96679532    -0.60100
H620        H  0.52823058  0.81733613  0.01442462     0.14400
H621        H  0.50952607  0.74675140  0.13488009     0.46200
H622        H  0.58103780  0.74123250  0.06973721     0.41600
H623        H  0.54380891  0.79753933  0.95767331     0.45000
H624        H  0.55615712  0.85145882  0.07485948     0.36500
C625        C  0.37895503  0.64709851  0.28307922    -0.27700
C626        C  0.35878782  0.66959331  0.28246874     0.01900
C627        C  0.32931664  0.66294549  0.28535202     0.30000
C628        C  0.32037879  0.63439161  0.28831773    -0.19500
C629        C  0.34048246  0.61200132  0.28905237    -0.28900
C630        C  0.36998820  0.61850078  0.28645392     0.44000
C631        C  0.36841004  0.69946852  0.27620350     0.05200
O632        O  0.30906900  0.68429498  0.28559147    -0.57400
H633        H  0.29765669  0.62980723  0.29104920     0.18100
O634        O  0.39016213  0.59706901  0.28682814    -0.64200
H635        H  0.40166942  0.65165828  0.28030831     0.16600
C636        C  0.38996362  0.71323313  0.29252757     0.28800
C637        C  0.40161162  0.73952241  0.28321711    -0.25100
C638        C  0.39198792  0.75237027  0.25773414    -0.24300
C639        C  0.36894139  0.73971340  0.24275263     0.40300
C640        C  0.35737578  0.71352321  0.25196751    -0.26800
O641        O  0.40008860  0.70089328  0.31725592    -0.58700
H642        H  0.41962279  0.74876644  0.29474550     0.15900
O643        O  0.35945875  0.75141008  0.21747289    -0.60100
H644        H  0.34089449  0.70329865  0.23906670     0.14400
H645        H  0.39039944  0.58918713  0.26699384     0.46200
H646        H  0.41935739  0.69323240  0.31222685     0.41600
H647        H  0.34144245  0.76162618  0.22254506     0.45000
H648        H  0.30668351  0.68956497  0.30614534     0.36500
C649        C  0.01236289  0.70257656  0.90852361    -0.27700
C650        C  0.02574150  0.67972818  0.92270363     0.01900
C651        C  0.01881245  0.65138407  0.91459894     0.30000
C652        C  0.99893913  0.64628878  0.89249815    -0.19500
C653        C  0.98626908  0.66920825  0.87770901    -0.28900
C654        C  0.99298272  0.69752000  0.88606881     0.44000
C655        C  0.04652129  0.68568157  0.94619397     0.05200
O656        O  0.03181150  0.62854888  0.92775101    -0.57400
H657        H  0.99417710  0.62439879  0.88625402     0.18100
O658        O  0.97992237  0.72040281  0.87305538    -0.64200
H659        H  0.01689843  0.72445938  0.91494851     0.16600
C660        C  0.07123637  0.70264340  0.94154692     0.28800
C661        C  0.09086751  0.70730169  0.96397050    -0.25100
C662        C  0.08610767  0.69551555  0.99140818    -0.24300
C663        C  0.06081589  0.67921959  0.99612306     0.40300
C664        C  0.04140884  0.67444086  0.97365133    -0.26800
O665        O  0.07705208  0.71363013  0.91480269    -0.58700
H666        H  0.11017401  0.71965313  0.95964241     0.15900
O667        O  0.05446429  0.66828608  0.02276887    -0.60100
H668        H  0.02216487  0.66190480  0.97772771     0.14400
H669        H  0.99426529  0.72777649  0.85904961     0.46200
H670        H  0.07156319  0.73412826  0.91595560     0.41600
H671        H  0.06024301  0.64783502  0.02186352     0.45000
H672        H  0.04915788  0.62444662  0.91594145     0.36500
C673        C  0.32156244  0.80837427  0.12199971    -0.27700
C674        C  0.30772224  0.78177278  0.12449927     0.01900
C675        C  0.32305360  0.75834654  0.13586397     0.30000
C676        C  0.35168421  0.76183789  0.14471384    -0.19500
C677        C  0.36554851  0.78851443  0.14241974    -0.28900
C678        C  0.35010538  0.81193986  0.13096052     0.44000
C679        C  0.27792293  0.77820714  0.11358056     0.05200
O680        O  0.31062226  0.73166513  0.13717810    -0.57400
H681        H  0.36306942  0.74355842  0.15337557     0.18100
O682        O  0.36211775  0.83880351  0.12982295    -0.64200
H683        H  0.31004361  0.82658029  0.11334317     0.16600
C684        C  0.25568462  0.76712227  0.13109719     0.28800
C685        C  0.22934545  0.75903295  0.11881363    -0.25100
C686        C  0.22498860  0.76179958  0.08915467    -0.24300
C687        C  0.24596129  0.77590959  0.07235451     0.40300
C688        C  0.27218348  0.78404486  0.08458861    -0.26800
O689        O  0.26011277  0.76242514  0.15984334    -0.58700
H690        H  0.21337194  0.74838710  0.13199136     0.15900
O691        O  0.24224823  0.77896884  0.04325105    -0.60100
H692        H  0.28884452  0.79299330  0.07090426     0.14400
H693        H  0.36905500  0.84101446  0.10974862     0.46200
H694        H  0.25860305  0.78154749  0.16900891     0.41600
H695        H  0.22889641  0.79536560  0.04109769     0.45000
H696        H  0.30773586  0.72775449  0.15795843     0.36500
C697        C  0.19041425  0.60060820  0.23315734    -0.27700
C698        C  0.20955204  0.61510000  0.21459944     0.01900
C699        C  0.23886939  0.61689584  0.22220187     0.30000
C700        C  0.24880565  0.60312629  0.24682130    -0.19500
C701        C  0.23012163  0.58719248  0.26433198    -0.28900
C702        C  0.20059312  0.58658504  0.25787300     0.44000
C703        C  0.19992472  0.62623386  0.18620238     0.05200
O704        O  0.25846489  0.63036518  0.20465654    -0.57400
H705        H  0.27170526  0.60321373  0.25110665     0.18100
O706        O  0.18204828  0.57028655  0.27401784    -0.64200
H707        H  0.16776877  0.59919410  0.22788563     0.16600
C708        C  0.18564796  0.60842360  0.16622053     0.28800
C709        C  0.18128320  0.61786067  0.13791030    -0.25100
C710        C  0.19118442  0.64491777  0.12895208    -0.24300
C711        C  0.20411297  0.66318684  0.14939786     0.40300
C712        C  0.20814898  0.65391375  0.17765540    -0.26800
O713        O  0.17762064  0.58107495  0.17354771    -0.58700
H714        H  0.17082456  0.60362760  0.12273485     0.15900
O715        O  0.21282458  0.69029776  0.14210311    -0.60100
H716        H  0.21851630  0.66821077  0.19283611     0.14400
H717        H  0.17381778  0.58368671  0.28839352     0.46200
H718        H  0.15651850  0.58196124  0.17660164     0.41600
H719        H  0.19513668  0.70213422  0.14340617     0.45000
H720        H  0.26436809  0.61568146  0.19034401     0.36500
C721        C  0.45068555  0.41217797  0.26800736    -0.27700
C722        C  0.44830036  0.43123269  0.29144313     0.01900
C723        C  0.47122253  0.43283850  0.31119926     0.30000
C724        C  0.49535702  0.41516774  0.30792957    -0.19500
C725        C  0.49765745  0.39601489  0.28470970    -0.28900
C726        C  0.47518345  0.39482791  0.26444887     0.44000
C727        C  0.42182331  0.44899101  0.29564119     0.05200
O728        O  0.47019523  0.45155152  0.33397144    -0.57400
H729        H  0.51238842  0.41639390  0.32375036     0.18100
O730        O  0.47596853  0.37534581  0.24231773    -0.64200
H731        H  0.43316141  0.41013059  0.25284234     0.16600
C732        C  0.41086595  0.46630854  0.27345207     0.28800
C733        C  0.38681807  0.48387877  0.27848889    -0.25100
C734        C  0.37317803  0.48478994  0.30560491    -0.24300
C735        C  0.38400898  0.46713489  0.32769677     0.40300
C736        C  0.40779484  0.44929897  0.32250385    -0.26800
O737        O  0.42446813  0.46743495  0.24723633    -0.58700
H738        H  0.37923187  0.49733735  0.26115228     0.15900
O739        O  0.37126166  0.46666487  0.35434345    -0.60100
H740        H  0.41546396  0.43572857  0.33972029     0.14400
H741        H  0.48552744  0.38549125  0.22618386     0.46200
H742        H  0.41204805  0.45627652  0.23397403     0.41600
H743        H  0.38260094  0.48028712  0.36618935     0.45000
H744        H  0.48016189  0.46909420  0.32714853     0.36500
C745        C  0.77819102  0.07064744  0.51027421    -0.27700
C746        C  0.80094294  0.05347486  0.51991733     0.01900
C747        C  0.82924632  0.06042305  0.51119651     0.30000
C748        C  0.83437688  0.08406573  0.49326755    -0.19500
C749        C  0.81162262  0.10137410  0.48360548    -0.28900
C750        C  0.78324465  0.09426379  0.49231543     0.44000
C751        C  0.79510553  0.02838807  0.53898560     0.05200
O752        O  0.85217916  0.04437754  0.52028684    -0.57400
H753        H  0.85633515  0.08884788  0.48695956     0.18100
O754        O  0.76019388  0.11050724  0.48390873    -0.64200
H755        H  0.75625812  0.06555547  0.51641088     0.16600
C756        C  0.77905561  0.03122122  0.56465890     0.28800
C757        C  0.77590738  0.00773720  0.58327477    -0.25100
C758        C  0.78829485  0.98100868  0.57667994    -0.24300
C759        C  0.80302019  0.97786496  0.55025147     0.40300
C760        C  0.80635463  0.00136703  0.53179231    -0.26800
O761        O  0.76791630  0.05728602  0.57264355    -0.58700
H762        H  0.76467288  0.01082137  0.60348110     0.15900
O763        O  0.81462803  0.95200470  0.54233901    -0.60100
H764        H  0.81804243  0.99850363  0.51178911     0.14400
H765        H  0.75247633  0.10071390  0.46660530     0.46200
H766        H  0.74690196  0.05570067  0.56930747     0.41600
H767        H  0.79925311  0.94214533  0.53132345     0.45000
H768        H  0.85685222  0.05182758  0.53970698     0.36500
C769        C  0.74752842  0.26753610  0.35287110    -0.27700
C770        C  0.72242610  0.27342218  0.36892839     0.01900
C771        C  0.72390532  0.27339254  0.39912183     0.30000
C772        C  0.74917983  0.26514654  0.41274871    -0.19500
C773        C  0.77338719  0.25632964  0.39683536    -0.28900
C774        C  0.77309438  0.25926737  0.36673289     0.44000
C775        C  0.69443898  0.27905766  0.35468672     0.05200
O776        O  0.70018962  0.27978347  0.41559119    -0.57400
H777        H  0.74908704  0.26333917  0.43600383     0.18100
O778        O  0.79664741  0.25177647  0.35059530    -0.64200
H779        H  0.74689690  0.26794966  0.32959525     0.16600
C780        C  0.69106755  0.30231760  0.33589866     0.28800
C781        C  0.66355422  0.30988200  0.32630935    -0.25100
C782        C  0.63904259  0.29400290  0.33450468    -0.24300
C783        C  0.64274925  0.26951307  0.35181515     0.40300
C784        C  0.67020365  0.26242744  0.36198684    -0.26800
O785        O  0.71430157  0.31877195  0.32810776    -0.58700
H786        H  0.66142330  0.32840174  0.31246271     0.15900
O787        O  0.61960484  0.25316908  0.36010751    -0.60100
H788        H  0.67252035  0.24417910  0.37617224     0.14400
H789        H  0.80912006  0.26904390  0.35048474     0.46200
H790        H  0.71942474  0.31232924  0.30840413     0.41600
H791        H  0.61922441  0.23681763  0.34643646     0.45000
H792        H  0.69938716  0.30099405  0.41618596     0.36500
C793        C  0.58762636  0.94584335  0.15559703    -0.27700
C794        C  0.57194044  0.94771862  0.18153941     0.01900
C795        C  0.58003513  0.96877606  0.20173486     0.30000
C796        C  0.60305188  0.98743780  0.19591598    -0.19500
C797        C  0.61874353  0.98581978  0.16995484    -0.28900
C798        C  0.61096207  0.96441457  0.14986465     0.44000
C799        C  0.54726868  0.92778596  0.18760126     0.05200
O800        O  0.56544000  0.97148193  0.22729550    -0.57400
H801        H  0.60849302  0.00348918  0.21188003     0.18100
O802        O  0.62638898  0.96091860  0.12490397    -0.64200
H803        H  0.58213897  0.92950548  0.13994723     0.16600
C804        C  0.52373274  0.92563519  0.16870412     0.28800
C805        C  0.50048211  0.90740510  0.17518757    -0.25100
C806        C  0.50003262  0.89061217  0.20038954    -0.24300
C807        C  0.52351325  0.89301884  0.21945235     0.40300
C808        C  0.54676478  0.91134264  0.21296765    -0.26800
O809        O  0.52272443  0.94210717  0.14432216    -0.58700
H810        H  0.48285328  0.90617762  0.16004489     0.15900
O811        O  0.52413773  0.87755707  0.24446656    -0.60100
H812        H  0.56461951  0.91263011  0.22783469     0.14400
H813        H  0.64255027  0.94805625  0.13003685     0.46200
H814        H  0.52723185  0.92883233  0.12825730     0.41600
H815        H  0.51288133  0.88901450  0.25851789     0.45000
H816        H  0.54818402  0.98309097  0.22276869     0.36500
C817        C  0.69220692  0.95818140  0.03547230    -0.27700
C818        C  0.70352010  0.93132945  0.04293152     0.01900
C819        C  0.71945126  0.92917242  0.06866604     0.30000
C820        C  0.72305863  0.95336945  0.08660797    -0.19500
C821        C  0.71063637  0.98001598  0.07960564    -0.28900
C822        C  0.69527552  0.98211894  0.05352632     0.44000
C823        C  0.69782383  0.90603369  0.02371928     0.05200
O824        O  0.73097320  0.90341009  0.07685349    -0.57400
H825        H  0.73476741  0.95097133  0.10656716     0.18100
O826        O  0.68342928  0.00765908  0.04512043    -0.64200
H827        H  0.68060340  0.96062793  0.01547211     0.16600
C828        C  0.66953185  0.89922046  0.01504974     0.28800
C829        C  0.66441638  0.87667765  0.99559856    -0.25100
C830        C  0.68714360  0.86046351  0.98387984    -0.24300
C831        C  0.71554780  0.86715434  0.99279670     0.40300
C832        C  0.72061322  0.88959111  0.01253702    -0.26800
O833        O  0.64653826  0.91403436  0.02617347    -0.58700
H834        H  0.64239327  0.87204426  0.98956311     0.15900
O835        O  0.73867460  0.85230017  0.98206106    -0.60100
H836        H  0.74255578  0.89458623  0.01860113     0.14400
H837        H  0.66267825  0.00604467  0.04983087     0.46200
H838        H  0.63957182  0.92629210  0.01024885     0.41600
H839        H  0.74218651  0.83673140  0.99609690     0.45000
H840        H  0.71703749  0.89528302  0.09085456     0.36500
C841        C  0.78106525  0.15415987  0.30859526    -0.27700
C842        C  0.78524069  0.12596907  0.29899250     0.01900
C843        C  0.79618017  0.10549906  0.31835394     0.30000
C844        C  0.80262105  0.11334079  0.34684431    -0.19500
C845        C  0.79782940  0.14146530  0.35666501    -0.28900
C846        C  0.78745631  0.16198916  0.33697903     0.44000
C847        C  0.77587736  0.11750625  0.26958765     0.05200
O848        O  0.80000004  0.07759824  0.30981353    -0.57400
H849        H  0.81087533  0.09727104  0.36141756     0.18100
O850        O  0.78439692  0.19009134  0.34496613    -0.64200
H851        H  0.77283137  0.17020086  0.29396484     0.16600
C852        C  0.74653629  0.11852057  0.26231260     0.28800
C853        C  0.73707597  0.10626416  0.23653514    -0.25100
C854        C  0.75648915  0.09322318  0.21733602    -0.24300
C855        C  0.78612013  0.09431424  0.22338208     0.40300
C856        C  0.79565103  0.10623043  0.24952626    -0.26800
O857        O  0.72660247  0.12879112  0.28158363    -0.58700
H858        H  0.71415421  0.10509920  0.23249352     0.15900
O859        O  0.80556050  0.08119355  0.20544769    -0.60100
H860        H  0.81834128  0.10550701  0.25475155     0.14400
H861        H  0.80413163  0.19819242  0.34370428     0.46200
H862        H  0.72105611  0.14789272  0.27419876     0.41600
H863        H  0.80765236  0.09427936  0.18878210     0.45000
H864        H  0.78114033  0.06814544  0.31314891     0.36500
C865        C  0.62783950  0.16072699  0.16940550    -0.27700
C866        C  0.63206771  0.17271975  0.19676134     0.01900
C867        C  0.64357508  0.15537608  0.21870257     0.30000
C868        C  0.65135008  0.12688679  0.21284256    -0.19500
C869        C  0.64768921  0.11495796  0.18529266    -0.28900
C870        C  0.63537876  0.13219046  0.16358407     0.44000
C871        C  0.62281035  0.20272689  0.20263625     0.05200
O872        O  0.64599327  0.16566879  0.24628033    -0.57400
H873        H  0.66030580  0.11409752  0.23002729     0.18100
O874        O  0.63172609  0.12185072  0.13620818    -0.64200
H875        H  0.61884676  0.17366249  0.15233420     0.16600
C876        C  0.64125995  0.22265440  0.21614929     0.28800
C877        C  0.63036714  0.24887508  0.22601550    -0.25100
C878        C  0.60144723  0.25614878  0.22152526    -0.24300
C879        C  0.58384434  0.23764352  0.20533362     0.40300
C880        C  0.59449459  0.21104931  0.19620260    -0.26800
O881        O  0.66962876  0.21622504  0.22094158    -0.58700
H882        H  0.64413191  0.26295086  0.23847604     0.15900
O883        O  0.55527230  0.24378365  0.20136993    -0.60100
H884        H  0.58003142  0.19617651  0.18562400     0.14400
H885        H  0.61122881  0.11595979  0.13520433     0.46200
H886        H  0.67960427  0.22054106  0.20258648     0.41600
H887        H  0.55437044  0.25379783  0.18262574     0.45000
H888        H  0.66695255  0.16655253  0.25021709     0.36500
C889        C  0.29713849  0.38299791  0.45474575    -0.27700
C890        C  0.30655262  0.41090318  0.46108673     0.01900
C891        C  0.32170377  0.41553838  0.48701667     0.30000
C892        C  0.32785985  0.39240918  0.50547872    -0.19500
C893        C  0.31873104  0.36438807  0.49891889    -0.28900
C894        C  0.30299801  0.36000576  0.47323207     0.44000
C895        C  0.30065100  0.43470580  0.44026611     0.05200
O896        O  0.32909339  0.44284655  0.49527589    -0.57400
H897        H  0.33926165  0.39659153  0.52533527     0.18100
O898        O  0.29312079  0.33326453  0.46583783    -0.64200
H899        H  0.28543732  0.37885241  0.43505017     0.16600
C900        C  0.32290911  0.45290967  0.43057128     0.28800
C901        C  0.31703984  0.47509270  0.41121153    -0.25100
C902        C  0.28927908  0.47918321  0.39997159    -0.24300
C903        C  0.26713243  0.46032335  0.40870868     0.40300
C904        C  0.27285589  0.43850501  0.42878927    -0.26800
O905        O  0.35079857  0.44863586  0.43907536    -0.58700
H906        H  0.33468272  0.48866515  0.40425887     0.15900
O907        O  0.23985905  0.46292911  0.39784257    -0.60100
H908        H  0.25545085  0.42451326  0.43547878     0.14400
H909        H  0.30811468  0.32514903  0.45296727     0.46200
H910        H  0.35921639  0.43565434  0.42438568     0.41600
H911        H  0.23028932  0.47747882  0.41015254     0.45000
H912        H  0.35044199  0.44313391  0.49604893     0.36500
C913        C  0.45308868  0.25908149  0.45663785    -0.27700
C914        C  0.45716894  0.28545101  0.44255172     0.01900
C915        C  0.44121887  0.30932239  0.45170703     0.30000
C916        C  0.42147435  0.30674278  0.47432731    -0.19500
C917        C  0.41719769  0.28051559  0.48883567    -0.28900
C918        C  0.43341934  0.25651189  0.47972890     0.44000
C919        C  0.47735532  0.28822737  0.41776596     0.05200
O920        O  0.44400923  0.33514362  0.43787765    -0.57400
H921        H  0.40932761  0.32563000  0.48037842     0.18100
O922        O  0.43072824  0.23068083  0.49348545    -0.64200
H923        H  0.46531292  0.24049936  0.44981647     0.16600
C924        C  0.50219958  0.30549078  0.41965710     0.28800
C925        C  0.51912814  0.31070191  0.39513727    -0.25100
C926        C  0.51195044  0.29861973  0.36832105    -0.24300
C927        C  0.48730696  0.28075067  0.36671754     0.40300
C928        C  0.47038957  0.27566921  0.39127927    -0.26800
O929        O  0.50993568  0.31767582  0.44536847    -0.58700
H930        H  0.53799766  0.32422063  0.39720174     0.15900
O931        O  0.47926968  0.26828969  0.34122863    -0.60100
H932        H  0.45123718  0.26250788  0.38944104     0.14400
H933        H  0.41728681  0.21930327  0.48147403     0.46200
H934        H  0.52027054  0.30237467  0.45588719     0.41600
H935        H  0.46633419  0.28238936  0.33196289     0.45000
H936        H  0.45681044  0.34682191  0.45028255     0.36500
C937        C  0.16461931  0.57568378  0.96336466    -0.27700
C938        C  0.18831321  0.55770260  0.96844219     0.01900
C939        C  0.20774898  0.56507354  0.99046732     0.30000
C940        C  0.20334334  0.58991190  0.00690196    -0.19500
C941        C  0.17936771  0.60765982  0.00217952    -0.28900
C942        C  0.16006755  0.60042427  0.97994607     0.44000
C943        C  0.19287484  0.53181490  0.95014684     0.05200
O944        O  0.23096838  0.54797421  0.99638475    -0.57400
H945        H  0.21850222  0.59498034  0.02382808     0.18100
O946        O  0.13690588  0.61755839  0.97390870    -0.64200
H947        H  0.14978224  0.57078463  0.94611450     0.16600
C948        C  0.17058188  0.51180763  0.94567609     0.28800
C949        C  0.17461322  0.48883870  0.92659194    -0.25100
C950        C  0.20083235  0.48510640  0.91176277    -0.24300
C951        C  0.22353018  0.50445654  0.91719797     0.40300
C952        C  0.21941337  0.52757489  0.93614011    -0.26800
O953        O  0.14507473  0.51410042  0.96051114    -0.58700
H954        H  0.15697186  0.47398434  0.92323430     0.15900
O955        O  0.24951400  0.50162024  0.90341300    -0.60100
H956        H  0.23679511  0.54277726  0.93919978     0.14400
H957        H  0.14401682  0.63145682  0.95940266     0.46200
H958        H  0.13053132  0.51972392  0.94602927     0.41600
H959        H  0.24771700  0.51307099  0.88557430     0.45000
H960        H  0.22315678  0.53194992  0.00803167     0.36500
C961        C  0.04597245  0.55548020  0.81932120    -0.27700
C962        C  0.04896907  0.53316190  0.79935352     0.01900
C963        C  0.02988395  0.53175004  0.77585230     0.30000
C964        C  0.00792230  0.55229625  0.77288129    -0.19500
C965        C  0.00465034  0.57441917  0.79317619    -0.28900
C966        C  0.02436715  0.57607337  0.81629313     0.44000
C967        C  0.07265555  0.51208255  0.80315230     0.05200
O968        O  0.03162897  0.50950302  0.75657806    -0.57400
H969        H  0.99293395  0.55038897  0.75518812     0.18100
O970        O  0.02272927  0.59774514  0.83624769    -0.64200
H971        H  0.06071646  0.55712326  0.83726558     0.16600
C972        C  0.09467381  0.50947165  0.78246852     0.28800
C973        C  0.11790424  0.49099921  0.78724222    -0.25100
C974        C  0.11983997  0.47473329  0.81261944    -0.24300
C975        C  0.09757824  0.47717597  0.83327786     0.40300
C976        C  0.07444234  0.49593332  0.82856672    -0.26800
O977        O  0.09410736  0.52548593  0.75778416    -0.58700
H978        H  0.13460359  0.48957121  0.77098328     0.15900
O979        O  0.09876623  0.46232181  0.85866763    -0.60100
H980        H  0.05787700  0.49800953  0.84490741     0.14400
H981        H  0.03300791  0.61417070  0.82743368     0.46200
H982        H  0.10326287  0.54399591  0.76296319     0.41600
H983        H  0.08715515  0.44475804  0.85537856     0.45000
H984        H  0.03883125  0.51812595  0.73846847     0.36500
C985        C  0.30297350  0.39326247  0.72738959    -0.27700
C986        C  0.29092490  0.36970912  0.71275047     0.01900
C987        C  0.26868079  0.35406848  0.72603235     0.30000
C988        C  0.25743174  0.36310257  0.75246047    -0.19500
C989        C  0.26769883  0.38800702  0.76609711    -0.28900
C990        C  0.29148068  0.40251429  0.75391324     0.44000
C991        C  0.30071678  0.36180968  0.68327483     0.05200
O992        O  0.25760777  0.32999718  0.71310461    -0.57400
H993        H  0.23939255  0.35141454  0.76155848     0.18100
O994        O  0.30187998  0.42717101  0.76623013    -0.64200
H995        H  0.32034631  0.40532392  0.71755396     0.16600
C996        C  0.28162483  0.36283476  0.65980002     0.28800
C997        C  0.28998962  0.35211710  0.63280052    -0.25100
C998        C  0.31757495  0.34053115  0.62842696    -0.24300
C999        C  0.33718813  0.34090450  0.65180254     0.40300
C1000       C  0.32861628  0.35140747  0.67883390    -0.26800
O1001       O  0.25444248  0.37377078  0.66322532    -0.58700
H1002       H  0.27460686  0.35250627  0.61536083     0.15900
O1003       O  0.36439574  0.32984538  0.64898521    -0.60100
H1004       H  0.34355300  0.35053171  0.69665812     0.14400
H1005       H  0.31644074  0.42070243  0.78030819     0.46200
H1006       H  0.25588863  0.39405063  0.65704035     0.41600
H1007       H  0.37720762  0.34674844  0.64654152     0.45000
H1008       H  0.23834583  0.33566501  0.70594214     0.36500
C1009       C  0.96881016  0.14323563  0.57904935    -0.27700
C1010       C  0.97036347  0.16879351  0.56305496     0.01900
C1011       C  0.99107620  0.18953203  0.57086648     0.30000
C1012       C  0.00876901  0.18511098  0.59473640    -0.19500
C1013       C  0.00706408  0.15970758  0.61085988    -0.28900
C1014       C  0.98730444  0.13834417  0.60233171     0.44000
C1015       C  0.95002052  0.17394275  0.53876253     0.05200
O1016       O  0.99439631  0.21421185  0.55521611    -0.57400
H1017       H  0.02422528  0.20158806  0.60040897     0.18100
O1018       O  0.98497275  0.11312475  0.61728412    -0.64200
H1019       H  0.95285161  0.12711859  0.57383663     0.16600
C1020       C  0.94478614  0.15281959  0.51766476     0.28800
C1021       C  0.92527651  0.15812095  0.49532972    -0.25100
C1022       C  0.91054507  0.18438419  0.49336777    -0.24300
C1023       C  0.91622402  0.20571691  0.51420574     0.40300
C1024       C  0.93546268  0.20028014  0.53670883    -0.26800
O1025       O  0.95947506  0.12731536  0.51803188    -0.58700
H1026       H  0.92148604  0.14134999  0.47963266     0.15900
O1027       O  0.90305998  0.23197048  0.51298156    -0.60100
H1028       H  0.93879844  0.21674964  0.55282250     0.14400
H1029       H  0.99787414  0.09950751  0.60710959     0.46200
H1030       H  0.94494275  0.11252235  0.52289342     0.41600
H1031       H  0.91516000  0.24354871  0.49969741     0.45000
H1032       H  0.00788762  0.20912895  0.53942801     0.36500
C1033       C  0.95119596  0.05491430  0.70539570    -0.27700
C1034       C  0.95265543  0.03432653  0.68333677     0.01900
C1035       C  0.97816591  0.03246096  0.66688125     0.30000
C1036       C  0.00165262  0.05048267  0.67299637    -0.19500
C1037       C  0.00045436  0.07072192  0.69555965    -0.28900
C1038       C  0.97466480  0.07280555  0.71166260     0.44000
C1039       C  0.92772173  0.01460892  0.67824442     0.05200
O1040       O  0.98048865  0.01303113  0.64480288    -0.57400
H1041       H  0.02084779  0.04864801  0.65982668     0.18100
O1042       O  0.97166182  0.09287994  0.73304369    -0.64200
H1043       H  0.93156823  0.05735739  0.71779358     0.16600
C1044       C  0.91507796  0.99929936  0.70116096     0.28800
C1045       C  0.89185540  0.98072594  0.69613549    -0.25100
C1046       C  0.88048498  0.97687042  0.66835856    -0.24300
C1047       C  0.89318961  0.99218401  0.64537467     0.40300
C1048       C  0.91638821  0.01092765  0.65045999    -0.26800
O1049       O  0.92611247  0.00137373  0.72842843    -0.58700
H1050       H  0.88287033  0.96913166  0.71423474     0.15900
O1051       O  0.88284978  0.98947733  0.61791475    -0.60100
H1052       H  0.92543598  0.02279250  0.63257458     0.14400
H1053       H  0.97706146  0.08283637  0.75100571     0.46200
H1054       H  0.91167792  0.01244219  0.73963855     0.41600
H1055       H  0.89561771  0.97525764  0.60844439     0.45000
H1056       H  0.98605048  0.99474428  0.65404719     0.36500
C1057       C  0.13498617  0.24986582  0.75666394    -0.27700
C1058       C  0.12115910  0.26320916  0.78008201     0.01900
C1059       C  0.09807869  0.24873686  0.79367127     0.30000
C1060       C  0.08870160  0.22205550  0.78311669    -0.19500
C1061       C  0.10181939  0.20946681  0.75900880    -0.28900
C1062       C  0.12535059  0.22341089  0.74601094     0.44000
C1063       C  0.13017721  0.29275682  0.78888210     0.05200
O1064       O  0.08257112  0.26187201  0.81513506    -0.57400
H1065       H  0.06955246  0.21234702  0.79230543     0.18100
O1066       O  0.13716985  0.21278475  0.72110319    -0.64200
H1067       H  0.15263034  0.26059481  0.74580569     0.16600
C1068       C  0.13701788  0.29931651  0.81761643     0.28800
C1069       C  0.14674742  0.32685023  0.82497058    -0.25100
C1070       C  0.15035248  0.34847312  0.80412426    -0.24300
C1071       C  0.14334312  0.34192137  0.77532743     0.40300
C1072       C  0.13317223  0.31443000  0.76801092    -0.26800
O1073       O  0.13626630  0.27839073  0.83831910    -0.58700
H1074       H  0.15207326  0.33100320  0.84723223     0.15900
O1075       O  0.14674080  0.36193848  0.75403163    -0.60100
H1076       H  0.12796284  0.30988853  0.74576511     0.14400
H1077       H  0.15242448  0.19939827  0.72741396     0.46200
H1078       H  0.12171366  0.28479831  0.85263168     0.41600
H1079       H  0.16661618  0.35910307  0.74669338     0.45000
H1080       H  0.08466192  0.24943173  0.83228290     0.36500
C1081       C  0.23477662  0.22336618  0.63157738    -0.27700
C1082       C  0.22001014  0.20214104  0.61600622     0.01900
C1083       C  0.23338342  0.19028363  0.59134073     0.30000
C1084       C  0.26002848  0.20109206  0.58168305    -0.19500
C1085       C  0.27355885  0.22388102  0.59609475    -0.28900
C1086       C  0.26117065  0.23421729  0.62187872     0.44000
C1087       C  0.18986989  0.19459789  0.62460149     0.05200
O1088       O  0.21927280  0.17030936  0.57487426    -0.57400
H1089       H  0.26885518  0.19323212  0.56155587     0.18100
O1090       O  0.27372088  0.25633661  0.63680357    -0.64200
H1091       H  0.22519681  0.23245021  0.65082359     0.16600
C1092       C  0.18086259  0.16594235  0.62821620     0.28800
C1093       C  0.15240246  0.15982411  0.63636461    -0.25100
C1094       C  0.13260372  0.18191133  0.64213553    -0.24300
C1095       C  0.14160677  0.21054995  0.63883267     0.40300
C1096       C  0.16987667  0.21667727  0.62997814    -0.26800
O1097       O  0.19990467  0.14374072  0.62493425    -0.58700
H1098       H  0.14613191  0.13764101  0.63937996     0.15900
O1099       O  0.12297461  0.23272506  0.64413450    -0.60100
H1100       H  0.17622960  0.23887611  0.62730456     0.14400
H1101       H  0.28934534  0.24736735  0.64810763     0.46200
H1102       H  0.20979052  0.14211796  0.64372329     0.41600
H1103       H  0.11344710  0.23647400  0.62546739     0.45000
H1104       H  0.23091446  0.15254346  0.57630025     0.36500
C1105       C  0.30815378  0.94004122  0.28323510    -0.27700
C1106       C  0.29924964  0.92572812  0.25827229     0.01900
C1107       C  0.27176897  0.93196362  0.24696667     0.30000
C1108       C  0.25423903  0.95288595  0.26028113    -0.19500
C1109       C  0.26376867  0.96778603  0.28482435    -0.28900
C1110       C  0.29087524  0.96055514  0.29651890     0.44000
C1111       C  0.31968335  0.90486350  0.24490910     0.05200
O1112       O  0.26150668  0.91705869  0.22366797    -0.57400
H1113       H  0.23349395  0.95786786  0.25100432     0.18100
O1114       O  0.30080487  0.97325022  0.32124620    -0.64200
H1115       H  0.32912140  0.93572305  0.29238993     0.16600
C1116       C  0.32792749  0.90655375  0.21567232     0.28800
C1117       C  0.35105536  0.89008549  0.20532557    -0.25100
C1118       C  0.36714282  0.87284903  0.22403565    -0.24300
C1119       C  0.35818657  0.87023957  0.25288439     0.40300
C1120       C  0.33449726  0.88576395  0.26292072    -0.26800
O1121       O  0.31493940  0.92556024  0.19743480    -0.58700
H1122       H  0.35754952  0.89221129  0.18302582     0.15900
O1123       O  0.37293311  0.85316303  0.27174577    -0.60100
H1124       H  0.32847448  0.88385435  0.28537602     0.14400
H1125       H  0.31506838  0.98775840  0.31480481     0.46200
H1126       H  0.32474875  0.94414997  0.20087441     0.41600
H1127       H  0.36378244  0.83401325  0.27017407     0.45000
H1128       H  0.25886996  0.93150129  0.20825450     0.36500
C1129       C  0.27104885  0.13145848  0.43331087    -0.27700
C1130       C  0.25715191  0.15807258  0.43062395     0.01900
C1131       C  0.23343712  0.16002973  0.41192412     0.30000
C1132       C  0.22411682  0.13577528  0.39638639    -0.19500
C1133       C  0.23798315  0.10907901  0.39898088    -0.28900
C1134       C  0.26169295  0.10720054  0.41790345     0.44000
C1135       C  0.26839346  0.18352457  0.44688529     0.05200
O1136       O  0.22034315  0.18595217  0.40735018    -0.57400
H1137       H  0.20637105  0.13813562  0.38164265     0.18100
O1138       O  0.27618122  0.08186142  0.42137890    -0.64200
H1139       H  0.28933915  0.12944111  0.44755666     0.16600
C1140       C  0.25118530  0.19893165  0.46666457     0.28800
C1141       C  0.26338485  0.22069864  0.48385355    -0.25100
C1142       C  0.29287918  0.22756377  0.48189584    -0.24300
C1143       C  0.30960295  0.21318246  0.46081789     0.40300
C1144       C  0.29743871  0.19134757  0.44390086    -0.26800
O1145       O  0.22272619  0.19199266  0.47040918    -0.58700
H1146       H  0.24996755  0.23119112  0.49979403     0.15900
O1147       O  0.33826397  0.21942291  0.45726326    -0.60100
H1148       H  0.31099406  0.18004972  0.42863381     0.14400
H1149       H  0.26716367  0.07266699  0.43838912     0.46200
H1150       H  0.22251642  0.17693853  0.48542465     0.41600
H1151       H  0.33912729  0.23274784  0.44069970     0.45000
H1152       H  0.20086771  0.18414358  0.41597355     0.36500
C1153       C  0.93229135  0.24445208  0.34207850    -0.27700
C1154       C  0.93105180  0.22918657  0.31608337     0.01900
C1155       C  0.91445838  0.20390998  0.31488926     0.30000
C1156       C  0.89863929  0.19486660  0.33912307    -0.19500
C1157       C  0.89922584  0.21057540  0.36506315    -0.28900
C1158       C  0.91698609  0.23524000  0.36642896     0.44000
C1159       C  0.94757923  0.23993185  0.29071583     0.05200
O1160       O  0.91326078  0.18808575  0.29003242    -0.57400
H1161       H  0.88552275  0.17571706  0.33741578     0.18100
O1162       O  0.91966984  0.25063543  0.39144061    -0.64200
H1163       H  0.94550237  0.26356643  0.34358873     0.16600
C1164       C  0.94180446  0.26712411  0.27898151     0.28800
C1165       C  0.96006033  0.27878021  0.25785250    -0.25100
C1166       C  0.98443792  0.26374390  0.24801035    -0.24300
C1167       C  0.98911877  0.23569568  0.25855250     0.40300
C1168       C  0.97083855  0.22411110  0.27973224    -0.26800
O1169       O  0.91834912  0.28250729  0.28817383    -0.58700
H1170       H  0.95565302  0.30013035  0.24988890     0.15900
O1171       O  0.01275339  0.22021917  0.25007883    -0.60100
H1172       H  0.97565663  0.20320539  0.28858716     0.14400
H1173       H  0.93560045  0.24127620  0.40204889     0.46200
H1174       H  0.92614967  0.29745803  0.30118170     0.41600
H1175       H  0.00653012  0.20959136  0.23270025     0.45000
H1176       H  0.89706179  0.19629534  0.27897367     0.36500
C1177       C  0.14165535  0.21970075  0.25808112    -0.27700
C1178       C  0.12621284  0.20059978  0.27560611     0.01900
C1179       C  0.09850568  0.20858068  0.28541640     0.30000
C1180       C  0.08598835  0.23422277  0.27600915    -0.19500
C1181       C  0.10055935  0.25194493  0.25647539    -0.28900
C1182       C  0.12904946  0.24513718  0.24849961     0.44000
C1183       C  0.13879289  0.17216434  0.28279490     0.05200
O1184       O  0.08274945  0.19069025  0.30278761    -0.57400
H1185       H  0.06395060  0.23896396  0.28205724     0.18100
O1186       O  0.14404532  0.26237695  0.22981403    -0.64200
H1187       H  0.16329517  0.21450608  0.25108125     0.16600
C1188       C  0.15021872  0.15395014  0.26128844     0.28800
C1189       C  0.16141876  0.12702505  0.26867435    -0.25100
C1190       C  0.16112368  0.11757673  0.29732549    -0.24300
C1191       C  0.14983680  0.13592800  0.31878634     0.40300
C1192       C  0.13900100  0.16290558  0.31143168    -0.26800
O1193       O  0.14918820  0.16165038  0.23284177    -0.58700
H1194       H  0.16984651  0.11328420  0.25182659     0.15900
O1195       O  0.14930089  0.12773035  0.34710048    -0.60100
H1196       H  0.13083140  0.17673802  0.32832676     0.14400
H1197       H  0.15751312  0.27352403  0.24204518     0.46200
H1198       H  0.16938034  0.16593612  0.22730973     0.41600
H1199       H  0.16329383  0.14044857  0.35695179     0.45000
H1200       H  0.07225293  0.17777191  0.28946829     0.36500
C1201       C  0.21893172  0.43208371  0.24273817    -0.27700
C1202       C  0.19476985  0.42438896  0.25938335     0.01900
C1203       C  0.19282229  0.43441040  0.28791710     0.30000
C1204       C  0.21369406  0.45309027  0.29873002    -0.19500
C1205       C  0.23699761  0.46227836  0.28165231    -0.28900
C1206       C  0.24018998  0.45059585  0.25383362     0.44000
C1207       C  0.17100900  0.40681608  0.24705400     0.05200
O1208       O  0.16988100  0.42709586  0.30509488    -0.57400
H1209       H  0.21090080  0.46149903  0.32031364     0.18100
O1210       O  0.26281796  0.45859519  0.23662918    -0.64200
H1211       H  0.22103472  0.42413536  0.22092645     0.16600
C1212       C  0.15541845  0.41599258  0.22280379     0.28800
C1213       C  0.13049359  0.40119141  0.21423649    -0.25100
C1214       C  0.12099660  0.37676744  0.22920168    -0.24300
C1215       C  0.13786340  0.36659600  0.25235398     0.40300
C1216       C  0.16226542  0.38177166  0.26122286    -0.26800
O1217       O  0.16349444  0.44025870  0.20824864    -0.58700
H1218       H  0.11839497  0.40912143  0.19605303     0.15900
O1219       O  0.13071792  0.34191839  0.26673354    -0.60100
H1220       H  0.17432211  0.37407066  0.27954792     0.14400
H1221       H  0.27797297  0.44416215  0.24026830     0.46200
H1222       H  0.17294054  0.43327653  0.19041646     0.41600
H1223       H  0.14071325  0.32632839  0.25614861     0.45000
H1224       H  0.15447725  0.44098934  0.30025364     0.36500
C1225       C  0.29595849  0.27726857  0.94290761    -0.27700
C1226       C  0.26948590  0.28994536  0.95037496     0.01900
C1227       C  0.25386564  0.27817553  0.97367560     0.30000
C1228       C  0.26454882  0.25432487  0.98868653    -0.19500
C1229       C  0.29158146  0.24243752  0.98198751    -0.28900
C1230       C  0.30722451  0.25423377  0.95868227     0.44000
C1231       C  0.25844704  0.31519824  0.93368208     0.05200
O1232       O  0.22870145  0.29057770  0.98284979    -0.57400
H1233       H  0.25229030  0.24617855  0.00676978     0.18100
O1234       O  0.33399999  0.24403264  0.95156355    -0.64200
H1235       H  0.30822296  0.28542017  0.92483708     0.16600
C1236       C  0.27646259  0.33865431  0.92667150     0.28800
C1237       C  0.26604485  0.36130559  0.90972859    -0.25100
C1238       C  0.23753560  0.36150913  0.89980011    -0.24300
C1239       C  0.21929411  0.33851021  0.90732173     0.40300
C1240       C  0.22978594  0.31563578  0.92392970    -0.26800
O1241       O  0.30394275  0.34023443  0.93729971    -0.58700
H1242       H  0.28028541  0.37901543  0.90461230     0.15900
O1243       O  0.19138561  0.33775106  0.89782512    -0.60100
H1244       H  0.21555943  0.29781136  0.92860158     0.14400
H1245       H  0.33042526  0.22758111  0.93851645     0.46200
H1246       H  0.31682330  0.33801163  0.92038268     0.41600
H1247       H  0.19136881  0.32379722  0.88171487     0.45000
H1248       H  0.23453130  0.30461643  0.99780160     0.36500
C1249       C  0.18068491  0.30607840  0.12127225    -0.27700
C1250       C  0.18948240  0.27730755  0.12119573     0.01900
C1251       C  0.17001161  0.25615602  0.13092686     0.30000
C1252       C  0.14254144  0.26385640  0.14073930    -0.19500
C1253       C  0.13378313  0.29262371  0.14122139    -0.28900
C1254       C  0.15319131  0.31384481  0.13120883     0.44000
C1255       C  0.21900471  0.26933873  0.11136038     0.05200
O1256       O  0.17767800  0.22778019  0.13104669    -0.57400
H1257       H  0.12823874  0.24721175  0.14855239     0.18100
O1258       O  0.14570308  0.34228155  0.13127997    -0.64200
H1259       H  0.19536325  0.32266268  0.11403824     0.16600
C1260       C  0.22932798  0.27678864  0.08376687     0.28800
C1261       C  0.25606729  0.26637695  0.07407025    -0.25100
C1262       C  0.27238956  0.24779322  0.09123758    -0.24300
C1263       C  0.26272982  0.24164322  0.11932657     0.40300
C1264       C  0.23648031  0.25259566  0.12925140    -0.26800
O1265       O  0.21267329  0.29268172  0.06546611    -0.58700
H1266       H  0.26288483  0.27095512  0.05226338     0.15900
O1267       O  0.27797250  0.22343148  0.13665491    -0.60100
H1268       H  0.22917514  0.24702045  0.15068104     0.14400
H1269       H  0.13804246  0.34601473  0.11177512     0.46200
H1270       H  0.20263128  0.27846815  0.05316930     0.41600
H1271       H  0.29353414  0.23535692  0.14502649     0.45000
H1272       H  0.17044052  0.21992553  0.11261350     0.36500
C1273       C  0.31008307  0.08888720  0.23264790    -0.27700
C1274       C  0.29410016  0.11072590  0.21928115     0.01900
C1275       C  0.27122798  0.12337552  0.23480294     0.30000
C1276       C  0.26320576  0.11259775  0.26185152    -0.19500
C1277       C  0.27769569  0.08922628  0.27403282    -0.28900
C1278       C  0.30206051  0.07819353  0.25973999     0.44000
C1279       C  0.30053160  0.11899560  0.18877253     0.05200
O1280       O  0.25544493  0.14516956  0.22301556    -0.57400
H1281       H  0.24390321  0.12080398  0.27211077     0.18100
O1282       O  0.31611656  0.05472528  0.27048219    -0.64200
H1283       H  0.32768763  0.07870796  0.22122910     0.16600
C1284       C  0.32879865  0.12549819  0.17993117     0.28800
C1285       C  0.33460388  0.13268087  0.15125380    -0.25100
C1286       C  0.31262274  0.13387081  0.13041747    -0.33900
C1287       C  0.28428981  0.12695524  0.13914601     0.40300
C1288       C  0.27847434  0.11967313  0.16801734    -0.26800
O1289       O  0.35101160  0.12540208  0.19928260    -0.58700
H1290       H  0.35662000  0.13786694  0.14551103     0.15900
O1291       O  0.26200079  0.12773873  0.11992438    -0.60100
H1292       H  0.25661211  0.11426897  0.17415000     0.14400
H1293       H  0.32929960  0.06244589  0.28532529     0.46200
H1294       H  0.35061969  0.14462594  0.20840764     0.41600
H1295       H  0.26074139  0.10802772  0.11197927     0.45000
H1296       H  0.26517627  0.16302258  0.22927353     0.36500
C1297       C  0.46848041  0.23217341  0.20645400    -0.27700
C1298       C  0.45516560  0.24911775  0.18541855     0.01900
C1299       C  0.45903685  0.27908533  0.18646536     0.30000
C1300       C  0.47622677  0.29153998  0.20780786    -0.19500
C1301       C  0.49039516  0.27463435  0.22841801    -0.28900
C1302       C  0.48601084  0.24462920  0.22774320     0.44000
C1303       C  0.43702879  0.23580764  0.16251579     0.05200
O1304       O  0.44670157  0.29643987  0.16618568    -0.57400
H1305       H  0.47927545  0.31457079  0.20746044     0.18100
O1306       O  0.49857108  0.22725373  0.24785829    -0.64200
H1307       H  0.46532717  0.20916116  0.20636991     0.16600
C1308       C  0.44787536  0.21462638  0.14366809     0.28800
C1309       C  0.43096338  0.20456991  0.12063235    -0.25100
C1310       C  0.40314933  0.21546589  0.11588255    -0.24300
C1311       C  0.39204836  0.23586236  0.13555910     0.40300
C1312       C  0.40882679  0.24562693  0.15854611    -0.26800
O1313       O  0.47557507  0.20492891  0.14651429    -0.58700
H1314       H  0.44000049  0.18889507  0.10595340     0.15900
O1315       O  0.36453587  0.24613745  0.13287640    -0.60100
H1316       H  0.39985225  0.26140544  0.17316745     0.14400
H1317       H  0.51483043  0.21780087  0.23774698     0.46200
H1318       H  0.47381313  0.18588956  0.15572596     0.41600
H1319       H  0.36662883  0.26504542  0.12333496     0.45000
H1320       H  0.46033895  0.29636499  0.14968349     0.36500
C1321       C  0.82848988  0.57721789  0.73560809    -0.27700
C1322       C  0.82584175  0.54808952  0.74268288     0.01900
C1323       C  0.84760981  0.53534316  0.75947363     0.30000
C1324       C  0.87141025  0.55169219  0.76877938    -0.19500
C1325       C  0.87427968  0.58072511  0.76115243    -0.28900
C1326       C  0.85226061  0.59342307  0.74459328     0.44000
C1327       C  0.80173572  0.53089716  0.73005957     0.05200
O1328       O  0.84686980  0.50648863  0.76509635    -0.57400
H1329       H  0.88811887  0.54136278  0.78118629     0.18100
O1330       O  0.85374304  0.62175360  0.73685576    -0.64200
H1331       H  0.81210627  0.58744533  0.72267955     0.16600
C1332       C  0.78327719  0.51368340  0.74695913     0.28800
C1333       C  0.76257269  0.49595208  0.73374877    -0.25100
C1334       C  0.75940065  0.49539883  0.70359869    -0.24300
C1335       C  0.77658691  0.51430112  0.68702688     0.40300
C1336       C  0.79737230  0.53164223  0.70023851    -0.26800
O1337       O  0.78538945  0.51385205  0.77636365    -0.58700
H1338       H  0.74953594  0.48203322  0.74713826     0.15900
O1339       O  0.77370063  0.51575589  0.65771222    -0.60100
H1340       H  0.81087378  0.54513131  0.68685161     0.14400
H1341       H  0.84516903  0.63244655  0.75323412     0.46200
H1342       H  0.77372834  0.53049231  0.78278015     0.41600
H1343       H  0.78967090  0.50401668  0.64978801     0.45000
H1344       H  0.84296141  0.50489346  0.78601942     0.36500
C1345       C  0.75960619  0.30867939  0.59308062    -0.27700
C1346       C  0.75403404  0.30508726  0.56362428     0.01900
C1347       C  0.73995208  0.32738746  0.54881658     0.30000
C1348       C  0.73173353  0.35263221  0.56335994    -0.19500
C1349       C  0.73795542  0.35653172  0.59267256    -0.28900
C1350       C  0.75174060  0.33398912  0.60754983     0.44000
C1351       C  0.76551280  0.27945573  0.54789608     0.05200
O1352       O  0.73502931  0.32514730  0.51984122    -0.57400
H1353       H  0.72126200  0.36957635  0.55145428     0.18100
O1354       O  0.75761138  0.33638796  0.63635274    -0.64200
H1355       H  0.77046761  0.29187537  0.60485386     0.16600
C1356       C  0.79543333  0.27496000  0.54596536     0.28800
C1357       C  0.80652345  0.25338094  0.52803697    -0.25100
C1358       C  0.78827739  0.23553381  0.51187312    -0.24300
C1359       C  0.75823254  0.23872634  0.51517951     0.40300
C1360       C  0.74706488  0.26070618  0.53288241    -0.26800
O1361       O  0.81416853  0.29275955  0.56015614    -0.58700
H1362       H  0.82965502  0.25162974  0.52548831     0.15900
O1363       O  0.73966349  0.22244145  0.49909163    -0.60100
H1364       H  0.72398226  0.26379210  0.53407811     0.14400
H1365       H  0.73949902  0.33091055  0.64626539     0.46200
H1366       H  0.81806834  0.30871273  0.54661845     0.41600
H1367       H  0.73757071  0.20419002  0.50978333     0.45000
H1368       H  0.75280446  0.33252000  0.51053927     0.36500
C1369       C  0.72439854  0.16375638  0.07770089    -0.27700
C1370       C  0.74941801  0.16192807  0.06058801     0.01900
C1371       C  0.76333481  0.13512058  0.05845043     0.30000
C1372       C  0.75271095  0.11117920  0.07342343    -0.19500
C1373       C  0.72781002  0.11287650  0.09071531    -0.28900
C1374       C  0.71369195  0.13968171  0.09272771     0.44000
C1375       C  0.76115568  0.18767319  0.04494873     0.05200
O1376       O  0.78740707  0.13197420  0.04156491    -0.57400
H1377       H  0.76411368  0.09104113  0.07133178     0.18100
O1378       O  0.68977346  0.14287890  0.10978568    -0.64200
H1379       H  0.71342459  0.18410470  0.07996523     0.16600
C1380       C  0.74409321  0.20378289  0.02577274     0.28800
C1381       C  0.75681719  0.22490389  0.00814792    -0.25100
C1382       C  0.78652106  0.23052210  0.00936709    -0.24300
C1383       C  0.80313655  0.21594160  0.02990225     0.40300
C1384       C  0.79048844  0.19491759  0.04752165    -0.26800
O1385       O  0.71553391  0.19728837  0.02216783    -0.58700
H1386       H  0.74380159  0.23540830  0.99201496     0.15900
O1387       O  0.83217801  0.22092951  0.03174489    -0.60100
H1388       H  0.80396384  0.18337933  0.06250820     0.14400
H1389       H  0.69729466  0.14676979  0.12935165     0.46200
H1390       H  0.70495126  0.21226512  0.03302675     0.41600
H1391       H  0.83422762  0.23631434  0.04635389     0.45000
H1392       H  0.78016327  0.12537942  0.02262805     0.36500
C1393       C  0.94452943  0.30103599  0.02246216    -0.27700
C1394       C  0.95056614  0.27747186  0.04009436     0.01900
C1395       C  0.93657558  0.25114865  0.03449541     0.30000
C1396       C  0.91732120  0.24872790  0.01140104    -0.19500
C1397       C  0.91185907  0.27220206  0.99331232    -0.28900
C1398       C  0.92562605  0.29860035  0.99924802     0.44000
C1399       C  0.97058741  0.28123788  0.06478866     0.05200
O1400       O  0.94148002  0.22765493  0.05145525    -0.57400
H1401       H  0.90673706  0.22836591  0.00757045     0.18100
O1402       O  0.91953533  0.32268525  0.98353777    -0.64200
H1403       H  0.95407163  0.32174579  0.02705381     0.16600
C1404       C  0.99762870  0.29465679  0.06121990     0.28800
C1405       C  0.01512225  0.30013920  0.08514760    -0.25100
C1406       C  0.00632023  0.29209306  0.11288973    -0.24300
C1407       C  0.97964117  0.27785868  0.11631133     0.40300
C1408       C  0.96195741  0.27288932  0.09248478    -0.26800
O1409       O  0.00754762  0.30157312  0.03426764    -0.58700
H1410       H  0.03581847  0.31040124  0.08188756     0.15900
O1411       O  0.97001293  0.26975941  0.14302084    -0.60100
H1412       H  0.94109253  0.26300889  0.09582170     0.14400
H1413       H  0.93617772  0.32518459  0.97034663     0.46200
H1414       H  0.00740457  0.32281565  0.03347235     0.41600
H1415       H  0.97472831  0.24908930  0.14454465     0.45000
H1416       H  0.95910268  0.21866246  0.04346653     0.36500
C1417       C  0.77087454  0.34388291  0.75524773    -0.27700
C1418       C  0.78618359  0.36170468  0.77418982     0.01900
C1419       C  0.79419847  0.38943632  0.76499856     0.30000
C1420       C  0.78513594  0.39955781  0.73814811    -0.19500
C1421       C  0.76752344  0.38258990  0.72051751    -0.28900
C1422       C  0.76135207  0.35420140  0.72873483     0.44000
C1423       C  0.79233462  0.35161357  0.80385682     0.05200
O1424       O  0.80914440  0.40752526  0.78284315    -0.57400
H1425       H  0.78962771  0.42161768  0.73234663     0.18100
O1426       O  0.74437389  0.33703583  0.71181453    -0.64200
H1427       H  0.76526953  0.32222336  0.76152228     0.16600
C1428       C  0.77025537  0.34033475  0.82146374     0.28800
C1429       C  0.77658749  0.33025170  0.84910147    -0.25100
C1430       C  0.80475616  0.33147831  0.85987344    -0.24300
C1431       C  0.82674005  0.34321469  0.84236723     0.40300
C1432       C  0.82042139  0.35310067  0.81468951    -0.26800
O1433       O  0.74221793  0.34014171  0.81225106    -0.58700
H1434       H  0.75932202  0.32157147  0.86219236     0.15900
O1435       O  0.85466446  0.34452712  0.85176120    -0.60100
H1436       H  0.83770453  0.36145679  0.80141384     0.14400
H1437       H  0.75804777  0.32566512  0.69998896     0.46200
H1438       H  0.73764707  0.31975157  0.80821759     0.41600
H1439       H  0.86398944  0.32699578  0.84402266     0.45000
H1440       H  0.79427167  0.41713729  0.79480389     0.36500
C1441       C  0.93283473  0.25461473  0.82346981    -0.27700
C1442       C  0.92567545  0.22762792  0.81177319     0.01900
C1443       C  0.90248372  0.21240609  0.82433907     0.30000
C1444       C  0.88820564  0.22327052  0.84874863    -0.19500
C1445       C  0.89581331  0.24988071  0.86080867    -0.28900
C1446       C  0.91788387  0.26589225  0.84742901     0.44000
C1447       C  0.94406932  0.21424183  0.78859503     0.05200
O1448       O  0.89375991  0.18659454  0.81314474    -0.57400
H1449       H  0.87092529  0.21081867  0.85827183     0.18100
O1450       O  0.92635425  0.29170645  0.85876871    -0.64200
H1451       H  0.95081726  0.26659321  0.81472764     0.16600
C1452       C  0.95252086  0.22906620  0.76338989     0.28800
C1453       C  0.97160273  0.21623909  0.74335289    -0.25100
C1454       C  0.98307138  0.18878788  0.74822936    -0.24300
C1455       C  0.97375485  0.17371709  0.77297468     0.40300
C1456       C  0.95455166  0.18632254  0.79259368    -0.26800
O1457       O  0.94205187  0.25598834  0.75800875    -0.58700
H1458       H  0.97851924  0.22838581  0.72473472     0.15900
O1459       O  0.98355863  0.14652132  0.77841189    -0.60100
H1460       H  0.94873613  0.17445002  0.81175700     0.14400
H1461       H  0.91656754  0.30638181  0.84695760     0.46200
H1462       H  0.95847273  0.26919123  0.76133186     0.41600
H1463       H  0.99799178  0.14872968  0.79394324     0.45000
H1464       H  0.88027482  0.19152829  0.79746041     0.36500
C1465       C  0.40569493  0.22900891  0.66613655    -0.27700
C1466       C  0.43585733  0.23026200  0.66636807     0.01900
C1467       C  0.45026736  0.24283047  0.64275044     0.30000
C1468       C  0.43454256  0.25360372  0.61930819    -0.19500
C1469       C  0.40436616  0.25180341  0.61883072    -0.28900
C1470       C  0.38999658  0.23966497  0.64274376     0.44000
C1471       C  0.45214148  0.21729446  0.69068204     0.05200
O1472       O  0.47977599  0.24307491  0.64162861    -0.57400
H1473       H  0.44601991  0.26242627  0.60102800     0.18100
O1474       O  0.36047770  0.23891017  0.64381941    -0.64200
H1475       H  0.39425130  0.21964419  0.68417394     0.16600
C1476       C  0.47095456  0.23378233  0.70773704     0.28800
C1477       C  0.48865101  0.22047294  0.72815741    -0.25100
C1478       C  0.48758781  0.19063066  0.73243641    -0.24300
C1479       C  0.46667000  0.17458265  0.71719065     0.40300
C1480       C  0.44943435  0.18788058  0.69640529    -0.26800
O1481       O  0.47259527  0.26290538  0.70421229    -0.58700
H1482       H  0.50402601  0.23347684  0.73984743     0.15900
O1483       O  0.46363356  0.14564226  0.72146328    -0.60100
H1484       H  0.43454200  0.17495029  0.68401045     0.14400
H1485       H  0.35511218  0.21902404  0.63846131     0.46200
H1486       H  0.45843953  0.27093039  0.71806186     0.41600
H1487       H  0.45030083  0.14381927  0.73809603     0.45000
H1488       H  0.48545726  0.26301151  0.64652806     0.36500
C1489       C  0.49945000  0.15338875  0.91874133    -0.27700
C1490       C  0.47648661  0.17297794  0.91717438     0.01900
C1491       C  0.47234789  0.18792918  0.89119161     0.30000
C1492       C  0.49022863  0.18257569  0.86735720    -0.19500
C1493       C  0.51265345  0.16228595  0.86857280    -0.28900
C1494       C  0.51725897  0.14786823  0.89484627     0.44000
C1495       C  0.45602602  0.17627937  0.94203335     0.05200
O1496       O  0.45048323  0.20745273  0.88856797    -0.57400
H1497       H  0.48617452  0.19420814  0.84765098     0.18100
O1498       O  0.53931385  0.12859407  0.89768112    -0.64200
H1499       H  0.50352740  0.14208611  0.93862727     0.16600
C1500       C  0.44295562  0.15202787  0.95454370     0.28800
C1501       C  0.42300113  0.15516343  0.97704592    -0.25100
C1502       C  0.41524823  0.18236081  0.98783338    -0.24300
C1503       C  0.42838323  0.20673359  0.97532394     0.40300
C1504       C  0.44863293  0.20355637  0.95284080    -0.26800
O1505       O  0.44828033  0.12512647  0.94378030    -0.58700
H1506       H  0.41324830  0.13594828  0.98580037     0.15900
O1507       O  0.42153835  0.23378524  0.98465255    -0.60100
H1508       H  0.45848770  0.22254616  0.94370644     0.14400
H1509       H  0.53078629  0.10970147  0.89278848     0.46200
H1510       H  0.46056852  0.11562365  0.95830573     0.41600
H1511       H  0.40506978  0.23977572  0.97257290     0.45000
H1512       H  0.43326451  0.19600582  0.88335252     0.36500
C1513       C  0.74653938  0.19769895  0.85023145    -0.27700
C1514       C  0.72187830  0.19049861  0.86631233     0.01900
C1515       C  0.72264568  0.19230857  0.89642122     0.30000
C1516       C  0.74706059  0.20301000  0.91005909    -0.19500
C1517       C  0.77100352  0.21232611  0.89407974    -0.28900
C1518       C  0.77121161  0.20852525  0.86403251     0.44000
C1519       C  0.69454413  0.18286865  0.85208756     0.05200
O1520       O  0.69922422  0.18435515  0.91263743    -0.57400
H1521       H  0.74666304  0.20557627  0.93324453     0.18100
O1522       O  0.79418145  0.21770605  0.84787562    -0.64200
H1523       H  0.74613886  0.19622366  0.82698151     0.16600
C1524       C  0.67121208  0.20205123  0.85276828     0.28800
C1525       C  0.64409886  0.19327374  0.84316314    -0.25100
C1526       C  0.63968463  0.16536292  0.83259906    -0.24300
C1527       C  0.66355501  0.14650587  0.83091307     0.40300
C1528       C  0.69064990  0.15535155  0.84075538    -0.26800
O1529       O  0.67452981  0.22919181  0.86369792    -0.58700
H1530       H  0.62641816  0.20834497  0.84431316     0.15900
O1531       O  0.66060120  0.11912542  0.82047095    -0.60100
H1532       H  0.70847098  0.14039707  0.84033361     0.14400
H1533       H  0.80594036  0.20032871  0.84441129     0.46200
H1534       H  0.68100825  0.24101186  0.84719923     0.41600
H1535       H  0.66748480  0.11997397  0.80028474     0.45000
H1536       H  0.68879936  0.20242776  0.91687167     0.36500
C1537       C  0.63728721  0.31102847  0.71521684    -0.27700
C1538       C  0.63650296  0.28920192  0.69441780     0.01900
C1539       C  0.64531126  0.29529065  0.66617607     0.30000
C1540       C  0.65427470  0.32304567  0.65888058    -0.19500
C1541       C  0.65478838  0.34526321  0.67953104    -0.28900
C1542       C  0.64643140  0.33880433  0.70805756     0.44000
C1543       C  0.62602604  0.26026110  0.70237313     0.05200
O1544       O  0.64530043  0.27421632  0.64555051    -0.57400
H1545       H  0.66102084  0.32707412  0.63693167     0.18100
O1546       O  0.64692078  0.35939865  0.72913903    -0.64200
H1547       H  0.63060639  0.30652367  0.73710224     0.16600
C1548       C  0.64177429  0.24296035  0.72134084     0.28800
C1549       C  0.63002764  0.21710778  0.73118000    -0.25100
C1550       C  0.60241813  0.20822273  0.72255698    -0.24300
C1551       C  0.58737718  0.22474514  0.70225061     0.40300
C1552       C  0.59924609  0.25059111  0.69228579    -0.26800
O1553       O  0.66843803  0.25143215  0.73073740    -0.58700
H1554       H  0.64186494  0.20471960  0.74687860     0.15900
O1555       O  0.55988279  0.21746713  0.69439618    -0.60100
H1556       H  0.58687185  0.26385619  0.67778840     0.14400
H1557       H  0.66633607  0.35797945  0.73786562     0.46200
H1558       H  0.66513850  0.25985412  0.75005823     0.41600
H1559       H  0.56202288  0.20671355  0.67614359     0.45000
H1560       H  0.66305554  0.26294714  0.64904965     0.36500
C1561       C  0.66325565  0.04255032  0.75338320    -0.27700
C1562       C  0.67714965  0.05172087  0.72808926     0.01900
C1563       C  0.66532389  0.07484322  0.71272864     0.30000
C1564       C  0.64009141  0.08808534  0.72239109    -0.19500
C1565       C  0.62590425  0.07895522  0.74760581    -0.28900
C1566       C  0.63787340  0.05588829  0.76315145     0.44000
C1567       C  0.70210542  0.03541600  0.71619129     0.05200
O1568       O  0.67812075  0.08456730  0.68794775    -0.57400
H1569       H  0.63169713  0.10578606  0.70995436     0.18100
O1570       O  0.62509500  0.04617284  0.78790958    -0.64200
H1571       H  0.67162101  0.02441681  0.76519314     0.16600
C1572       C  0.72670030  0.02884019  0.73269259     0.28800
C1573       C  0.74825891  0.01074903  0.72134174    -0.25100
C1574       C  0.74544068  0.99904974  0.69362961    -0.24300
C1575       C  0.72201499  0.00766374  0.67646498     0.40300
C1576       C  0.70051712  0.02519369  0.68788730    -0.26800
O1577       O  0.72974641  0.03989582  0.75987267    -0.58700
H1578       H  0.76609946  0.00443501  0.73484508     0.15900
O1579       O  0.71889991  0.99730750  0.64898590    -0.60100
H1580       H  0.68185792  0.02985053  0.67479988     0.14400
H1581       H  0.61223502  0.03034267  0.78170690     0.46200
H1582       H  0.72554714  0.02375411  0.77308042     0.41600
H1583       H  0.72300659  0.01383692  0.63621201     0.45000
H1584       H  0.69431610  0.09683779  0.69440060     0.36500
C1585       C  0.05110489  0.78091187  0.20034934    -0.27700
C1586       C  0.04583691  0.75311281  0.18998472     0.01900
C1587       C  0.02416558  0.73653642  0.20331889     0.30000
C1588       C  0.00722475  0.74835033  0.22549975    -0.19500
C1589       C  0.01138733  0.77681388  0.23472331    -0.28900
C1590       C  0.03443062  0.79263659  0.22263259     0.44000
C1591       C  0.06292466  0.74190144  0.16511596     0.05200
O1592       O  0.01862855  0.70914036  0.19406919    -0.57400
H1593       H  0.98981866  0.73564419  0.23440601     0.18100
O1594       O  0.04037877  0.81999296  0.23177050    -0.64200
H1595       H  0.06813594  0.79374023  0.19089534     0.16600
C1596       C  0.06403548  0.75681668  0.13876720     0.28800
C1597       C  0.08107829  0.74654581  0.11598500    -0.25100
C1598       C  0.09743287  0.72129992  0.11874147    -0.24300
C1599       C  0.09607568  0.70629209  0.14513917     0.40300
C1600       C  0.07883196  0.71650645  0.16784256    -0.26800
O1601       O  0.04859314  0.78156898  0.13502805    -0.58700
H1602       H  0.08146883  0.75850000  0.09603939     0.15900
O1603       O  0.11179235  0.68179425  0.14926793    -0.60100
H1604       H  0.07843188  0.70486249  0.18797158     0.14400
H1605       H  0.05089039  0.81765253  0.25015163     0.46200
H1606       H  0.02856757  0.77522631  0.13124977     0.41600
H1607       H  0.13039728  0.68836332  0.15730257     0.45000
H1608       H  0.00207443  0.71087328  0.18077755     0.36500
C1609       C  0.03844276  0.93633992  0.26533484    -0.27700
C1610       C  0.05296350  0.93896896  0.29177268     0.01900
C1611       C  0.04431181  0.92137803  0.31477404     0.30000
C1612       C  0.02117813  0.90245693  0.31163287    -0.19500
C1613       C  0.00601481  0.90005941  0.28552812    -0.28900
C1614       C  0.01529209  0.91693610  0.26203239     0.44000
C1615       C  0.07733256  0.95958245  0.29574186     0.05200
O1616       O  0.05849603  0.92236970  0.34058964    -0.57400
H1617       H  0.01520113  0.88944329  0.32998247     0.18100
O1618       O  0.00151101  0.91527593  0.23605728    -0.64200
H1619       H  0.04483032  0.94959222  0.24730206     0.16600
C1620       C  0.10224333  0.95827820  0.27842147     0.28800
C1621       C  0.12625303  0.97547500  0.28494467    -0.25100
C1622       C  0.12606593  0.99409586  0.30881514    -0.24300
C1623       C  0.10076034  0.99620169  0.32546425     0.40300
C1624       C  0.07668514  0.97920301  0.31878619    -0.26800
O1625       O  0.10399178  0.93902724  0.25614807    -0.58700
H1626       H  0.14540593  0.97367825  0.27169470     0.15900
O1627       O  0.09897304  0.01554970  0.34765927    -0.60100
H1628       H  0.05751601  0.98098808  0.33201217     0.14400
H1629       H  0.01367062  0.90252377  0.22403522     0.46200
H1630       H  0.10065564  0.95044692  0.23852534     0.41600
H1631       H  0.10155347  0.00410511  0.36539254     0.45000
H1632       H  0.07576115  0.91015540  0.33790345     0.36500
C1633       C  0.83701876  0.92525725  0.25787067    -0.27700
C1634       C  0.82234424  0.91498829  0.23348936     0.01900
C1635       C  0.83309336  0.89040844  0.21945466     0.30000
C1636       C  0.85838515  0.87725398  0.22906955    -0.19500
C1637       C  0.87365706  0.88783597  0.25303447    -0.28900
C1638       C  0.86225601  0.91182093  0.26778213     0.44000
C1639       C  0.79760467  0.93139926  0.22120307     0.05200
O1640       O  0.81920325  0.87916638  0.19599132    -0.57400
H1641       H  0.86602980  0.85853218  0.21754298     0.18100
O1642       O  0.87592866  0.92287085  0.29142622    -0.64200
H1643       H  0.82933217  0.94428335  0.26884729     0.16600
C1644       C  0.77353844  0.93974557  0.23791785     0.28800
C1645       C  0.75231298  0.95787177  0.22622182    -0.25100
C1646       C  0.75481118  0.96800351  0.19788349    -0.24300
C1647       C  0.77793383  0.95810558  0.18073523     0.40300
C1648       C  0.79888748  0.94003832  0.19234954    -0.26800
O1649       O  0.77101111  0.93103456  0.26594590    -0.58700
H1650       H  0.73489494  0.96535364  0.23983394     0.15900
O1651       O  0.78060238  0.96661751  0.15259673    -0.60100
H1652       H  0.81701361  0.93385191  0.17899399     0.14400
H1653       H  0.86662398  0.91346853  0.30812195     0.46200
H1654       H  0.76069132  0.91242274  0.26504028     0.41600
H1655       H  0.79612131  0.98128561  0.15251170     0.45000
H1656       H  0.80267879  0.86824489  0.20395736     0.36500
C1657       C  0.75574310  0.76104851  0.52340330    -0.27700
C1658       C  0.73919287  0.78155657  0.53833508     0.01900
C1659       C  0.70887550  0.77952363  0.53698477     0.30000
C1660       C  0.69576828  0.75895547  0.51941612    -0.19500
C1661       C  0.71224817  0.73935300  0.50347673    -0.28900
C1662       C  0.74247147  0.74001620  0.50614549     0.44000
C1663       C  0.75307257  0.80614914  0.55375897     0.05200
O1664       O  0.69173357  0.79825439  0.55202454    -0.57400
H1665       H  0.67252236  0.75894566  0.51745634     0.18100
O1666       O  0.75930640  0.72155472  0.49044133    -0.64200
H1667       H  0.77901528  0.76221526  0.52386216     0.16600
C1668       C  0.77519431  0.80232907  0.57414194     0.28800
C1669       C  0.78524715  0.82583240  0.59038398    -0.25100
C1670       C  0.77344391  0.85332699  0.58670705    -0.24300
C1671       C  0.75262900  0.85733049  0.56505466     0.40300
C1672       C  0.74291080  0.83404549  0.54876006    -0.26800
O1673       O  0.78577023  0.77549585  0.57971397    -0.58700
H1674       H  0.80140482  0.82228370  0.60673153     0.15900
O1675       O  0.74113142  0.88389677  0.55992000    -0.60100
H1676       H  0.72674615  0.83776431  0.53245471     0.14400
H1677       H  0.76190224  0.73089477  0.47147183     0.46200
H1678       H  0.80484345  0.77486152  0.57009088     0.41600
H1679       H  0.75446960  0.89310389  0.54600255     0.45000
H1680       H  0.69094249  0.79056666  0.57186753     0.36500
C1681       C  0.76096234  0.75710216  0.35052687    -0.27700
C1682       C  0.77477572  0.77954340  0.36519143     0.01900
C1683       C  0.76146816  0.79150637  0.38968975     0.30000
C1684       C  0.73568509  0.77971712  0.40023562    -0.19500
C1685       C  0.72284956  0.75607160  0.38656547    -0.28900
C1686       C  0.73520818  0.74535255  0.36106335     0.44000
C1687       C  0.80430756  0.78821872  0.35645408     0.05200
O1688       O  0.77457229  0.81325737  0.40465601    -0.57400
H1689       H  0.72699422  0.78752416  0.42044778     0.18100
O1690       O  0.72391169  0.72145695  0.34804277    -0.64200
H1691       H  0.77101002  0.74765528  0.33170162     0.16600
C1692       C  0.82736051  0.76878299  0.35860865     0.28800
C1693       C  0.85513304  0.77686383  0.34989556    -0.25100
C1694       C  0.86058750  0.80437499  0.33888444    -0.24300
C1695       C  0.83728462  0.82392484  0.33687820     0.40300
C1696       C  0.80956517  0.81578547  0.34579622    -0.26800
O1697       O  0.82288189  0.74168837  0.36911451    -0.58700
H1698       H  0.87239464  0.76138886  0.35157589     0.15900
O1699       O  0.84096647  0.85066686  0.32516403    -0.60100
H1700       H  0.79197910  0.83088199  0.34385445     0.14400
H1701       H  0.71344442  0.72870571  0.33103297     0.46200
H1702       H  0.82706960  0.74305757  0.38997898     0.41600
H1703       H  0.84394946  0.86366982  0.34174513     0.45000
H1704       H  0.78676842  0.80357493  0.41917113     0.36500
C1705       C  0.55891554  0.73888511  0.34007441    -0.27700
C1706       C  0.56653656  0.72990628  0.31217382     0.01900
C1707       C  0.58994685  0.71097292  0.30881499     0.30000
C1708       C  0.60553413  0.70186207  0.33307133    -0.19500
C1709       C  0.59837435  0.71167453  0.36085322    -0.28900
C1710       C  0.57457161  0.73008460  0.36414018     0.44000
C1711       C  0.55076724  0.74230585  0.28717690     0.05200
O1712       O  0.59900183  0.70293661  0.28185895    -0.57400
H1713       H  0.62392565  0.68791102  0.33000992     0.18100
O1714       O  0.56645206  0.73980544  0.39082090    -0.64200
H1715       H  0.54082690  0.75320895  0.34321550     0.16600
C1716       C  0.53734355  0.72517872  0.26594968     0.28800
C1717       C  0.51945219  0.73792454  0.24517674    -0.25100
C1718       C  0.51431772  0.76758374  0.24562215    -0.24300
C1719       C  0.52913816  0.78472192  0.26569574     0.40300
C1720       C  0.54710861  0.77214501  0.28608340    -0.26800
O1721       O  0.54007629  0.69592069  0.26636853    -0.58700
H1722       H  0.50787296  0.72436605  0.23019594     0.15900
O1723       O  0.52493656  0.81380862  0.26654887    -0.60100
H1724       H  0.55746188  0.78577652  0.30188211     0.14400
H1725       H  0.55257240  0.72534814  0.39811330     0.46200
H1726       H  0.52235131  0.68874991  0.27591830     0.41600
H1727       H  0.54070874  0.82196206  0.25471171     0.45000
H1728       H  0.59523341  0.68204866  0.28058201     0.36500
C1729       C  0.66678046  0.56193746  0.50773575    -0.27700
C1730       C  0.69334274  0.55992541  0.52206362     0.01900
C1731       C  0.71445059  0.58095502  0.51648504     0.30000
C1732       C  0.70896200  0.60322865  0.49695216    -0.19500
C1733       C  0.68223027  0.60557456  0.48297337    -0.28900
C1734       C  0.66103225  0.58454453  0.48862590     0.44000
C1735       C  0.69844199  0.53623119  0.54317720     0.05200
O1736       O  0.74035342  0.58034654  0.53050406    -0.57400
H1737       H  0.72556312  0.61914706  0.49322582     0.18100
O1738       O  0.63500735  0.58521040  0.47479371    -0.64200
H1739       H  0.65036091  0.54579793  0.51130099     0.16600
C1740       C  0.67888164  0.53127627  0.56582874     0.28800
C1741       C  0.68293194  0.50817492  0.58460953    -0.25100
C1742       C  0.70655138  0.48946313  0.58169694    -0.24300
C1743       C  0.72697847  0.49520645  0.55991000     0.40300
C1744       C  0.72266830  0.51820474  0.54070593    -0.26800
O1745       O  0.65621700  0.54958020  0.57043337    -0.58700
H1746       H  0.66732328  0.50492648  0.60167974     0.15900
O1747       O  0.75048358  0.47781233  0.55633263    -0.60100
H1748       H  0.73805814  0.52164773  0.52349485     0.14400
H1749       H  0.62119270  0.59303293  0.48910071     0.46200
H1750       H  0.63884892  0.53886142  0.56432136     0.41600
H1751       H  0.76669262  0.48838772  0.56522891     0.45000
H1752       H  0.73687529  0.59038171  0.54902629     0.36500
C1753       C  0.72227911  0.44471559  0.23757937    -0.27700
C1754       C  0.69858082  0.43607812  0.22088260     0.01900
C1755       C  0.69594177  0.44654145  0.19266375     0.30000
C1756       C  0.71668270  0.46521588  0.18157950    -0.19500
C1757       C  0.74024342  0.47422509  0.19822900    -0.28900
C1758       C  0.74307098  0.46366661  0.22642548     0.44000
C1759       C  0.67575298  0.41740989  0.23321450     0.05200
O1760       O  0.67191994  0.44046305  0.17661291    -0.57400
H1761       H  0.71366094  0.47359895  0.16007514     0.18100
O1762       O  0.76461086  0.47346340  0.24397679    -0.64200
H1763       H  0.72431098  0.43721049  0.25950672     0.16600
C1764       C  0.66725325  0.39210295  0.21904354     0.28800
C1765       C  0.64329202  0.37672899  0.22876048    -0.25100
C1766       C  0.62751838  0.38576173  0.25304588    -0.24300
C1767       C  0.63714750  0.41021406  0.26827227     0.40300
C1768       C  0.66095237  0.42589467  0.25819226    -0.26800
O1769       O  0.68197100  0.38243457  0.19530929    -0.58700
H1770       H  0.63701116  0.35764021  0.21702570     0.15900
O1771       O  0.62295943  0.41963055  0.29240235    -0.60100
H1772       H  0.66732913  0.44525211  0.26943214     0.14400
H1773       H  0.78082136  0.45995822  0.24095847     0.46200
H1774       H  0.69782633  0.37054960  0.20301097     0.41600
H1775       H  0.63310118  0.41052809  0.30873561     0.45000
H1776       H  0.67883296  0.42879001  0.16013108     0.36500
C1777       C  0.79140515  0.39938068  0.00890712    -0.27700
C1778       C  0.81435739  0.40931283  0.02583531     0.01900
C1779       C  0.84111659  0.39508047  0.02349350     0.30000
C1780       C  0.84451811  0.37182587  0.00430376    -0.19500
C1781       C  0.82154413  0.36200316  0.98721530    -0.28900
C1782       C  0.79466432  0.37606417  0.99001878     0.44000
C1783       C  0.80956878  0.43428196  0.04581948     0.05200
O1784       O  0.86358787  0.40266549  0.04103722    -0.57400
H1785       H  0.86520794  0.36120055  0.00314316     0.18100
O1786       O  0.77136472  0.36763483  0.97404012    -0.64200
H1787       H  0.77067217  0.40992258  0.01019407     0.16600
C1788       C  0.82779858  0.45853380  0.04573541     0.28800
C1789       C  0.82172932  0.48222041  0.06348108    -0.25100
C1790       C  0.79739758  0.48272446  0.08168475    -0.24300
C1791       C  0.77932253  0.45827968  0.08202413     0.40300
C1792       C  0.78540449  0.43458672  0.06420217    -0.26800
O1793       O  0.85140066  0.45969106  0.02798617    -0.58700
H1794       H  0.83630744  0.50036133  0.06289858     0.15900
O1795       O  0.75596677  0.45690995  0.10010178    -0.60100
H1796       H  0.77113320  0.41619937  0.06486380     0.14400
H1797       H  0.76055476  0.35413781  0.98653656     0.46200
H1798       H  0.84409225  0.46689725  0.00937164     0.41600
H1799       H  0.73932320  0.46291007  0.08825622     0.45000
H1800       H  0.87916547  0.40932238  0.02799748     0.36500
C1801       C  0.94955097  0.40867000  0.17082854    -0.27700
C1802       C  0.94954681  0.43358472  0.18771187     0.01900
C1803       C  0.97110293  0.43691274  0.20887734     0.30000
C1804       C  0.99183320  0.41527615  0.21299649    -0.19500
C1805       C  0.99198574  0.39058803  0.19556134    -0.28900
C1806       C  0.97069802  0.38771239  0.17413657     0.44000
C1807       C  0.92638092  0.45523926  0.18316074     0.05200
O1808       O  0.97250347  0.46141737  0.22518621    -0.57400
H1809       H  0.00839420  0.41827836  0.22907479     0.18100
O1810       O  0.96992171  0.36400816  0.15661885    -0.64200
H1811       H  0.93294817  0.40533255  0.15485924     0.16600
C1812       C  0.91941045  0.46490809  0.15529097     0.28800
C1813       C  0.89570882  0.48293117  0.15101961    -0.25100
C1814       C  0.87850335  0.49203874  0.17422645    -0.24300
C1815       C  0.88571362  0.48257644  0.20221523     0.40300
C1816       C  0.90940697  0.46444112  0.20642430    -0.26800
O1817       O  0.93552481  0.45665179  0.13193185    -0.58700
H1818       H  0.89089146  0.48985867  0.12934593     0.15900
O1819       O  0.86914154  0.48990714  0.22556374    -0.60100
H1820       H  0.91396228  0.45680112  0.22791427     0.14400
H1821       H  0.97883790  0.37023760  0.13822790     0.46200
H1822       H  0.95046578  0.47169685  0.12977291     0.41600
H1823       H  0.87888720  0.50674533  0.23424017     0.45000
H1824       H  0.98213120  0.47580456  0.21273441     0.36500
C1825       C  0.87439827  0.66293942  0.17576931    -0.27700
C1826       C  0.87092128  0.67405230  0.20358061     0.01900
C1827       C  0.85751607  0.65695201  0.22477147     0.30000
C1828       C  0.84731529  0.62952230  0.21777963    -0.19500
C1829       C  0.85059362  0.61845413  0.18982872    -0.28900
C1830       C  0.86435729  0.63552626  0.16876889     0.44000
C1831       C  0.88086064  0.70365045  0.21009133     0.05200
O1832       O  0.85420675  0.66687031  0.25237925    -0.57400
H1833       H  0.83675307  0.61691474  0.23428843     0.18100
O1834       O  0.86728761  0.62609690  0.14094676    -0.64200
H1835       H  0.88424422  0.67590051  0.15910679     0.16600
C1836       C  0.90933405  0.71239738  0.20405207     0.28800
C1837       C  0.91876289  0.73972684  0.21241471    -0.25100
C1838       C  0.90027107  0.75842278  0.22718787    -0.24300
C1839       C  0.87141289  0.75030746  0.23177531     0.40300
C1840       C  0.86183980  0.72321918  0.22303466    -0.26800
O1841       O  0.92878663  0.69347663  0.19246611    -0.58700
H1842       H  0.94122846  0.74534271  0.20950120     0.15900
O1843       O  0.85287296  0.76805921  0.24634701    -0.60100
H1844       H  0.83970908  0.71710654  0.22723705     0.14400
H1845       H  0.85039353  0.63389562  0.13063446     0.46200
H1846       H  0.93219731  0.70019322  0.17252329     0.41600
H1847       H  0.84599756  0.78191762  0.23181341     0.45000
H1848       H  0.87208780  0.66122475  0.26247880     0.36500
C1849       C  0.72234649  0.63208085  0.24347352    -0.27700
C1850       C  0.70864608  0.61474435  0.26430730     0.01900
C1851       C  0.70273183  0.58585922  0.25724952     0.30000
C1852       C  0.71184566  0.57455866  0.23094799    -0.19500
C1853       C  0.72821500  0.59097428  0.21166433    -0.28900
C1854       C  0.73266878  0.62023482  0.21755903     0.44000
C1855       C  0.70302155  0.62564944  0.29414591     0.05200
O1856       O  0.69046112  0.56760942  0.27689829    -0.57400
H1857       H  0.70890256  0.55180947  0.22702270     0.18100
O1858       O  0.74989916  0.63652227  0.19997408    -0.64200
H1859       H  0.72660720  0.65446144  0.24799774     0.16600
C1860       C  0.72431261  0.64066385  0.30977608     0.28800
C1861       C  0.71964379  0.64787370  0.33876255    -0.25100
C1862       C  0.69407854  0.64006506  0.35303796    -0.24300
C1863       C  0.67273243  0.62520994  0.33733555     0.40300
C1864       C  0.67705738  0.61877456  0.30818396    -0.26800
O1865       O  0.75042257  0.64704009  0.29745873    -0.58700
H1866       H  0.73636269  0.65937906  0.35018846     0.15900
O1867       O  0.64715346  0.61748191  0.34995646    -0.60100
H1868       H  0.66003281  0.60790830  0.29659354     0.14400
H1869       H  0.73810737  0.64052978  0.18276363     0.46200
H1870       H  0.75020599  0.66809617  0.29436287     0.41600
H1871       H  0.64963098  0.59704913  0.35548084     0.45000
H1872       H  0.70677157  0.55992333  0.28822730     0.36500
C1873       C  0.70916193  0.68985456  0.04182769    -0.27700
C1874       C  0.73926158  0.68733805  0.04201778     0.01900
C1875       C  0.75575549  0.70629209  0.02504711     0.30000
C1876       C  0.74201916  0.72651974  0.00731399    -0.19500
C1877       C  0.71180649  0.72799349  0.00607371    -0.28900
C1878       C  0.69545941  0.70979864  0.02397833     0.44000
C1879       C  0.75269632  0.66302453  0.05780042     0.05200
O1880       O  0.78512687  0.70360499  0.02386229    -0.57400
H1881       H  0.75495475  0.73971319  0.99310015     0.18100
O1882       O  0.66595270  0.71108125  0.02378704    -0.64200
H1883       H  0.69616433  0.67552871  0.05482738     0.16600
C1884       C  0.76920639  0.66723734  0.08284573     0.28800
C1885       C  0.78024840  0.64350062  0.09792173    -0.25100
C1886       C  0.77456684  0.61531139  0.08861625    -0.24300
C1887       C  0.75847163  0.61129745  0.06321820     0.40300
C1888       C  0.74770100  0.63493583  0.04816365    -0.26800
O1889       O  0.77391756  0.69437762  0.09321733    -0.58700
H1890       H  0.79225526  0.64710080  0.11753912     0.15900
O1891       O  0.75285259  0.58425604  0.05298790    -0.60100
H1892       H  0.73510854  0.63131857  0.02891605     0.14400
H1893       H  0.65966243  0.69473227  0.01164520     0.46200
H1894       H  0.75737742  0.69834843  0.10617443     0.41600
H1895       H  0.77099491  0.57792214  0.04364354     0.45000
H1896       H  0.79267996  0.71926517  0.03616534     0.36500
C1897       C  0.54826429  0.69440418  0.78291674    -0.27700
C1898       C  0.54251924  0.72190451  0.79392913     0.01900
C1899       C  0.52035797  0.73804405  0.78095076     0.30000
C1900       C  0.50409361  0.72636825  0.75817140    -0.19500
C1901       C  0.50894033  0.69823073  0.74818579    -0.28900
C1902       C  0.53177974  0.68255208  0.76059806     0.44000
C1903       C  0.55960698  0.73312143  0.81902994     0.05200
O1904       O  0.51359235  0.76484531  0.79107207    -0.57400
H1905       H  0.48670143  0.73893578  0.74927996     0.18100
O1906       O  0.53775424  0.65512219  0.75175124    -0.64200
H1907       H  0.56557884  0.68177642  0.79186746     0.16600
C1908       C  0.56395107  0.71629220  0.84385419     0.28800
C1909       C  0.58093871  0.72660610  0.86663542    -0.25100
C1910       C  0.59428302  0.75373365  0.86550774    -0.24300
C1911       C  0.58948890  0.77081002  0.84085995     0.40300
C1912       C  0.57235816  0.76050758  0.81807777    -0.26800
O1913       O  0.55080407  0.69004813  0.84653734    -0.58700
H1914       H  0.58377614  0.71302163  0.88527001     0.15900
O1915       O  0.60124302  0.79771562  0.83873896    -0.60100
H1916       H  0.56954177  0.77384306  0.79926606     0.14400
H1917       H  0.55035780  0.65731419  0.73464184     0.46200
H1918       H  0.56653463  0.67574542  0.84529439     0.41600
H1919       H  0.61962537  0.79506189  0.82819086     0.45000
H1920       H  0.49984635  0.76155443  0.80709731     0.36500
C1921       C  0.34133018  0.54296187  0.72533206    -0.27700
C1922       C  0.32678917  0.55227072  0.75032004     0.01900
C1923       C  0.33647657  0.57767715  0.76376312     0.30000
C1924       C  0.36062126  0.59236280  0.75313400    -0.19500
C1925       C  0.37560863  0.58283030  0.72850138    -0.28900
C1926       C  0.36519543  0.55813863  0.71423669     0.44000
C1927       C  0.30283720  0.53467799  0.76326296     0.05200
O1928       O  0.32250212  0.58850014  0.78744430    -0.57400
H1929       H  0.36748186  0.61158920  0.76430751     0.18100
O1930       O  0.37854445  0.54811686  0.68988282    -0.64200
H1931       H  0.33460190  0.52343100  0.71464741     0.16600
C1932       C  0.28019323  0.52310763  0.74660824     0.28800
C1933       C  0.25929049  0.50509812  0.75931212    -0.25100
C1934       C  0.25996516  0.49862919  0.78889119    -0.24300
C1935       C  0.28204999  0.51125227  0.80566675     0.40300
C1936       C  0.30309505  0.52869255  0.79285870    -0.26800
O1937       O  0.27831710  0.52909310  0.71782328    -0.58700
H1938       H  0.24271397  0.49585260  0.74583041     0.15900
O1939       O  0.28402149  0.50602486  0.83461184    -0.60100
H1940       H  0.32034071  0.53686062  0.80619984     0.14400
H1941       H  0.36793827  0.55695677  0.67368526     0.46200
H1942       H  0.26727897  0.54722641  0.71671994     0.41600
H1943       H  0.29720003  0.48941359  0.83632800     0.45000
H1944       H  0.30580225  0.59917357  0.77971489     0.36500
C1945       C  0.54150753  0.54874230  0.66199375    -0.27700
C1946       C  0.55033668  0.53280385  0.68589052     0.01900
C1947       C  0.53658699  0.53783093  0.71257843     0.30000
C1948       C  0.51426335  0.55815412  0.71489324    -0.19500
C1949       C  0.50502687  0.57385671  0.69080810    -0.28900
C1950       C  0.51930198  0.56899431  0.66417941     0.44000
C1951       C  0.57455499  0.51183841  0.68278279     0.05200
O1952       O  0.54464071  0.52283104  0.73656044    -0.57400
H1953       H  0.50397679  0.56139905  0.73558284     0.18100
O1954       O  0.51239668  0.58448183  0.64013025    -0.64200
H1955       H  0.55222833  0.54579853  0.64146518     0.16600
C1956       C  0.57378453  0.48957783  0.66218213     0.28800
C1957       C  0.59737923  0.47092613  0.65886251    -0.25100
C1958       C  0.62240947  0.47414707  0.67557462    -0.24300
C1959       C  0.62297318  0.49646064  0.69632399     0.40300
C1960       C  0.59929916  0.51488562  0.69972811    -0.26800
O1961       O  0.54968822  0.48537452  0.64571768    -0.58700
H1962       H  0.59606393  0.45397686  0.64295542     0.15900
O1963       O  0.64684349  0.50110557  0.71297302    -0.60100
H1964       H  0.60054228  0.53208905  0.71537367     0.14400
H1965       H  0.49865389  0.57227339  0.62933017     0.46200
H1966       H  0.55479252  0.49269630  0.62637783     0.41600
H1967       H  0.64292304  0.49084985  0.73124986     0.45000
H1968       H  0.53535761  0.50378883  0.73457844     0.36500
C1969       C  0.50074100  0.66412664  0.55851114    -0.27700
C1970       C  0.52698461  0.67874996  0.56237245     0.01900
C1971       C  0.53369551  0.68896968  0.59016565     0.30000
C1972       C  0.51447677  0.68465721  0.61317189    -0.19500
C1973       C  0.48836616  0.66972548  0.60940508    -0.28900
C1974       C  0.48165745  0.65949684  0.58160020     0.44000
C1975       C  0.54727323  0.68286401  0.53748138     0.05200
O1976       O  0.55926641  0.70277870  0.59529918    -0.57400
H1977       H  0.52036729  0.69263518  0.63424990     0.18100
O1978       O  0.45641412  0.64508635  0.57657194    -0.64200
H1979       H  0.49481999  0.65641106  0.53735258     0.16600
C1980       C  0.55498684  0.65974193  0.51939920     0.28800
C1981       C  0.57403092  0.66392836  0.49625982    -0.25100
C1982       C  0.58642448  0.69092517  0.49075733    -0.24300
C1983       C  0.57878362  0.71409528  0.50883348     0.40300
C1984       C  0.55923361  0.71001897  0.53168055    -0.26800
O1985       O  0.54455842  0.63269622  0.52450486    -0.58700
H1986       H  0.57977717  0.64563841  0.48304096     0.15900
O1987       O  0.58957915  0.74103055  0.50388276    -0.60100
H1988       H  0.55330636  0.72826755  0.54486202     0.14400
H1989       H  0.44227404  0.66013550  0.57150202     0.46200
H1990       H  0.55831990  0.62398743  0.53819144     0.41600
H1991       H  0.60597993  0.74312023  0.51732093     0.45000
H1992       H  0.57350992  0.68729201  0.59838926     0.36500
C1993       C  0.19443179  0.02457898  0.78041228    -0.27700
C1994       C  0.20308946  0.03831945  0.75506473     0.01900
C1995       C  0.23079934  0.03265692  0.74387929     0.30000
C1996       C  0.24886742  0.01266053  0.75763337    -0.19500
C1997       C  0.23947693  0.99795113  0.78235982    -0.28900
C1998       C  0.21221165  0.00487151  0.79408587     0.44000
C1999       C  0.18216456  0.05796743  0.74103996     0.05200
O2000       O  0.24055504  0.04697867  0.72000806    -0.57400
H2001       H  0.26976305  0.00795866  0.74836162     0.18100
O2002       O  0.20217646  0.99187799  0.81860953    -0.64200
H2003       H  0.17328550  0.02868821  0.78943478     0.16600
C2004       C  0.17195215  0.05298263  0.71289600     0.28800
C2005       C  0.14831484  0.06859128  0.70242006    -0.25100
C2006       C  0.13406920  0.08863584  0.72001645    -0.24300
C2007       C  0.14513781  0.09447431  0.74757371     0.40300
C2008       C  0.16893078  0.07932300  0.75779614    -0.26800
O2009       O  0.18378622  0.03185235  0.69607439    -0.58700
H2010       H  0.14017388  0.06393391  0.68110720     0.15900
O2011       O  0.13248501  0.11465409  0.76496974    -0.60100
H2012       H  0.17645974  0.08352465  0.77943590     0.14400
H2013       H  0.20872936  0.00430248  0.83462985     0.46200
H2014       H  0.17374753  0.01396292  0.70181079     0.41600
H2015       H  0.14234442  0.13294637  0.76019309     0.45000
H2016       H  0.24220312  0.03223527  0.70465932     0.36500
C2017       C  0.26978761  0.02814187  0.92703898    -0.27700
C2018       C  0.29550161  0.03053721  0.94284565     0.01900
C2019       C  0.31686373  0.00947466  0.93873419     0.30000
C2020       C  0.31224739  0.98653193  0.91976463    -0.19500
C2021       C  0.28668267  0.98411124  0.90374168    -0.28900
C2022       C  0.26539090  0.00543914  0.90750063     0.44000
C2023       C  0.30031787  0.05514776  0.96311995     0.05200
O2024       O  0.34280969  0.01148387  0.95258446    -0.57400
H2025       H  0.32930367  0.97094833  0.91702746     0.18100
O2026       O  0.24035118  0.00464213  0.89199326    -0.64200
H2027       H  0.25293632  0.04392043  0.92986502     0.16600
C2028       C  0.29575661  0.08375376  0.95449511     0.28800
C2029       C  0.30180721  0.10649973  0.97340110    -0.25100
C2030       C  0.31270658  0.10151784  0.00112097    -0.24300
C2031       C  0.31685768  0.07292111  0.00997078     0.40300
C2032       C  0.31057445  0.05012565  0.99113843    -0.26800
O2033       O  0.28698345  0.08982056  0.92703457    -0.58700
H2034       H  0.29853789  0.12826553  0.96602454     0.15900
O2035       O  0.32682874  0.06694406  0.03702553    -0.60100
H2036       H  0.31375326  0.02835196  0.99851354     0.14400
H2037       H  0.22703249  0.99246183  0.90336277     0.46200
H2038       H  0.26693108  0.09680133  0.92898138     0.41600
H2039       H  0.30938635  0.06272551  0.04865933     0.45000
H2040       H  0.35512578  0.02335451  0.93982826     0.36500
C2041       C  0.41215318  0.01079738  0.82614147    -0.27700
C2042       C  0.41956885  0.01710535  0.79746748     0.01900
C2043       C  0.40329821  0.00482752  0.77518097     0.30000
C2044       C  0.38043211  0.98634488  0.78158427    -0.19500
C2045       C  0.37302685  0.97965594  0.81021795    -0.28900
C2046       C  0.38907588  0.99237456  0.83263822     0.44000
C2047       C  0.44436087  0.03635279  0.79102060     0.05200
O2048       O  0.40950160  0.01083204  0.74696907    -0.57400
H2049       H  0.36845000  0.97719899  0.76384271     0.18100
O2050       O  0.38309029  0.98634631  0.86089574    -0.64200
H2051       H  0.42460612  0.01986748  0.84360029     0.16600
C2052       C  0.44591127  0.06394722  0.80319238     0.28800
C2053       C  0.47022345  0.08108410  0.79846669    -0.25100
C2054       C  0.49322917  0.07138377  0.78135640    -0.24300
C2055       C  0.49114562  0.04442374  0.76790685     0.40300
C2056       C  0.46693881  0.02697758  0.77301688    -0.26800
O2057       O  0.42341644  0.07459834  0.81915477    -0.58700
H2058       H  0.47126136  0.10204973  0.80852688     0.15900
O2059       O  0.51337157  0.03418158  0.75136840    -0.60100
H2060       H  0.46612974  0.00577250  0.76349596     0.14400
H2061       H  0.36908482  0.00118556  0.86705975     0.46200
H2062       H  0.43024777  0.07476638  0.83931520     0.41600
H2063       H  0.50760145  0.03794231  0.73123941     0.45000
H2064       H  0.39778424  0.02794404  0.74230592     0.36500
C2065       C  0.37220317  0.80865866  0.80743057    -0.27700
C2066       C  0.36591524  0.79605154  0.78073521     0.01900
C2067       C  0.34972759  0.81175168  0.76060035     0.30000
C2068       C  0.33962877  0.83915106  0.76752728    -0.19500
C2069       C  0.34601488  0.85190472  0.79416169    -0.28900
C2070       C  0.36274503  0.83639211  0.81411635     0.44000
C2071       C  0.37680701  0.76684759  0.77382318     0.05200
O2072       O  0.34392343  0.80067674  0.73388794    -0.57400
H2073       H  0.32686232  0.85051882  0.75180152     0.18100
O2074       O  0.36907486  0.84756781  0.84066446    -0.64200
H2075       H  0.38435298  0.79685484  0.82332150     0.16600
C2076       C  0.40609491  0.75985228  0.77756004     0.28800
C2077       C  0.41634482  0.73290886  0.76913336    -0.25100
C2078       C  0.39818249  0.71318600  0.75543674    -0.24300
C2079       C  0.36883377  0.71985829  0.75210612     0.40300
C2080       C  0.35818106  0.74617055  0.76204220    -0.26800
O2081       O  0.42532489  0.77988668  0.78747066    -0.58700
H2082       H  0.43915639  0.72850620  0.77081170     0.15900
O2083       O  0.35067275  0.70116838  0.73828009    -0.60100
H2084       H  0.33553133  0.75092292  0.75935158     0.14400
H2085       H  0.38876665  0.85562945  0.83873406     0.46200
H2086       H  0.43180809  0.79046978  0.77012957     0.41600
H2087       H  0.34902101  0.70858199  0.71833882     0.45000
H2088       H  0.35954579  0.80796428  0.72126434     0.36500
C2089       C  0.27106281  0.80143759  0.90110559    -0.27700
C2090       C  0.24724219  0.80363334  0.91974875     0.01900
C2091       C  0.23429162  0.83067103  0.92370850     0.30000
C2092       C  0.24445656  0.85459089  0.90863051    -0.19500
C2093       C  0.26787507  0.85250345  0.88955936    -0.28900
C2094       C  0.28143760  0.82558303  0.88610197     0.44000
C2095       C  0.23610227  0.77811850  0.93568349     0.05200
O2096       O  0.21250632  0.83419640  0.94343235    -0.57400
H2097       H  0.23397557  0.87503424  0.91217141     0.18100
O2098       O  0.30407123  0.82232440  0.86735888    -0.64200
H2099       H  0.28141429  0.78087712  0.89790312     0.16600
C2100       C  0.20661202  0.77087734  0.93478153     0.28800
C2101       C  0.19519466  0.75096540  0.95422443    -0.25100
C2102       C  0.21289315  0.73702983  0.97412919    -0.24300
C2103       C  0.24281301  0.74218685  0.97330906     0.40300
C2104       C  0.25422267  0.76267751  0.95420615    -0.26800
O2105       O  0.18842312  0.78430222  0.91597793    -0.58700
H2106       H  0.17213759  0.74737579  0.95468756     0.15900
O2107       O  0.26062335  0.72967992  0.99308935    -0.60100
H2108       H  0.27694996  0.76783307  0.95517679     0.14400
H2109       H  0.32157447  0.82540195  0.87912817     0.46200
H2110       H  0.19053101  0.77368118  0.89761325     0.41600
H2111       H  0.26429375  0.71011841  0.98560187     0.45000
H2112       H  0.19520826  0.83929001  0.93209858     0.36500
C2113       C  0.24709738  0.70108802  0.45142560    -0.27700
C2114       C  0.23123598  0.67707549  0.44186592     0.01900
C2115       C  0.20187248  0.67532795  0.44962045     0.30000
C2116       C  0.18924417  0.69646838  0.46699571    -0.19500
C2117       C  0.20515776  0.71997894  0.47738098    -0.28900
C2118       C  0.23437850  0.72225911  0.46919205     0.44000
C2119       C  0.24518311  0.65340623  0.42469764     0.05200
O2120       O  0.18528897  0.65259201  0.44085637    -0.57400
H2121       H  0.16686470  0.69391994  0.47316651     0.18100
O2122       O  0.25113931  0.74408652  0.47972443    -0.64200
H2123       H  0.26976015  0.70282844  0.44615487     0.16600
C2124       C  0.26141230  0.65884868  0.39949558     0.28800
C2125       C  0.27226975  0.63593878  0.38276534    -0.25100
C2126       C  0.26669416  0.60727433  0.39037007    -0.24300
C2127       C  0.25127307  0.60190029  0.41603149     0.40300
C2128       C  0.24101895  0.62467634  0.43294863    -0.26800
O2129       O  0.26590812  0.68644606  0.39042248    -0.58700
H2130       H  0.28397796  0.64062405  0.36312888     0.15900
O2131       O  0.24574972  0.57432952  0.42471894    -0.60100
H2132       H  0.22930937  0.61978174  0.45252852     0.14400
H2133       H  0.26007075  0.73629427  0.49739521     0.46200
H2134       H  0.25036439  0.69023492  0.37638243     0.41600
H2135       H  0.26398802  0.56747422  0.43331094     0.45000
H2136       H  0.17687707  0.65859917  0.42227661     0.36500
C2137       C  0.21569709  0.92667140  0.41642104    -0.27700
C2138       C  0.19650133  0.92956834  0.43974629     0.01900
C2139       C  0.18403589  0.95667598  0.44480732     0.30000
C2140       C  0.19079462  0.98006215  0.42690805    -0.19500
C2141       C  0.20979873  0.97722265  0.40337619    -0.28900
C2142       C  0.22207604  0.94994379  0.39817801     0.44000
C2143       C  0.19049939  0.90448994  0.45913250     0.05200
O2144       O  0.16618120  0.96087571  0.46801029    -0.57400
H2145       H  0.18097270  0.00060594  0.43156536     0.18100
O2146       O  0.23996905  0.94551724  0.37507172    -0.64200
H2147       H  0.22546677  0.90604334  0.41201024     0.16600
C2148       C  0.16221807  0.89496697  0.46510625     0.28800
C2149       C  0.15735370  0.87205646  0.48424473    -0.25100
C2150       C  0.18038268  0.85751688  0.49738634    -0.24300
C2151       C  0.20875404  0.86647066  0.49044123     0.40300
C2152       C  0.21350071  0.88963686  0.47168092    -0.26800
O2153       O  0.13912112  0.90748417  0.45187254    -0.58700
H2154       H  0.13538088  0.86547303  0.48852973     0.15900
O2155       O  0.23219678  0.85248059  0.50142179    -0.60100
H2156       H  0.23542610  0.89621512  0.46711667     0.14400
H2157       H  0.22705931  0.94007787  0.35899268     0.46200
H2158       H  0.13632605  0.89639517  0.43387598     0.41600
H2159       H  0.23871962  0.86444125  0.51784063     0.45000
H2160       H  0.14682148  0.96434297  0.45980843     0.36500
C2161       C  0.05150260  0.80830585  0.46335640    -0.27700
C2162       C  0.04397863  0.78598725  0.44450802     0.01900
C2163       C  0.05596634  0.75853893  0.44937407     0.30000
C2164       C  0.07522293  0.75408554  0.47227911    -0.19500
C2165       C  0.08252513  0.77647754  0.49126041    -0.28900
C2166       C  0.07010118  0.80375621  0.48658559     0.44000
C2167       C  0.02468853  0.79207306  0.41936431     0.05200
O2168       O  0.04907549  0.73583084  0.43189932    -0.57400
H2169       H  0.08435334  0.73295300  0.47526326     0.18100
O2170       O  0.07713149  0.82670604  0.50368032    -0.64200
H2171       H  0.04348608  0.82976666  0.45971755     0.16600
C2172       C  0.99924902  0.80847712  0.42236315     0.28800
C2173       C  0.98225287  0.81486586  0.39820135    -0.25100
C2174       C  0.98980119  0.80488631  0.37066639    -0.24300
C2175       C  0.01520882  0.78839745  0.36771584     0.40300
C2176       C  0.03240310  0.78246761  0.39173399    -0.26800
O2177       O  0.99003906  0.81719785  0.44905504    -0.58700
H2178       H  0.96270266  0.82715351  0.40120953     0.15900
O2179       O  0.02402231  0.77859262  0.34127468    -0.60100
H2180       H  0.05215813  0.77055717  0.38857007     0.14400
H2181       H  0.06089872  0.82860990  0.51747129     0.46200
H2182       H  0.99182924  0.83838812  0.44906501     0.41600
H2183       H  0.01723044  0.75844068  0.34026328     0.45000
H2184       H  0.03047873  0.72847791  0.43939269     0.36500
C2185       C  0.22538611  0.82543313  0.66970447    -0.27700
C2186       C  0.20296467  0.83731587  0.68627691     0.01900
C2187       C  0.17568026  0.84047298  0.67354419     0.30000
C2188       C  0.17143462  0.83306879  0.64463584    -0.19500
C2189       C  0.19392541  0.82181268  0.62771795    -0.28900
C2190       C  0.22105769  0.81767380  0.64073253     0.44000
C2191       C  0.20906346  0.85007411  0.71515123     0.05200
O2192       O  0.15299736  0.85116952  0.68916648    -0.57400
H2193       H  0.15017220  0.83578726  0.63555552     0.18100
O2194       O  0.24365501  0.80660737  0.62526042    -0.64200
H2195       H  0.24665245  0.82317337  0.67890478     0.16600
C2196       C  0.22293904  0.83479318  0.73735446     0.28800
C2197       C  0.23205892  0.84921594  0.76245729    -0.25100
C2198       C  0.22742831  0.87881716  0.76568253    -0.24300
C2199       C  0.21197186  0.89349763  0.74429808     0.40300
C2200       C  0.20281198  0.87917060  0.71953708    -0.26800
O2201       O  0.22878931  0.80615259  0.73416818    -0.58700
H2202       H  0.24449096  0.83772653  0.77836649     0.15900
O2203       O  0.20708792  0.92242524  0.74677803    -0.60100
H2204       H  0.19231709  0.89141151  0.70281989     0.14400
H2205       H  0.25466743  0.82351902  0.61839221     0.46200
H2206       H  0.21387984  0.79615689  0.74568979     0.41600
H2207       H  0.22180453  0.93170778  0.73437390     0.45000
H2208       H  0.14278141  0.83408703  0.69674123     0.36500
C2209       C  0.25387589  0.71166336  0.63343688    -0.27700
C2210       C  0.27149479  0.69203084  0.61868440     0.01900
C2211       C  0.26138180  0.67964153  0.59296220     0.30000
C2212       C  0.23485732  0.68811489  0.58155033    -0.19500
C2213       C  0.21794826  0.70892144  0.59543010    -0.28900
C2214       C  0.22724455  0.72007606  0.62199962     0.44000
C2215       C  0.30094552  0.68543787  0.62925069     0.05200
O2216       O  0.27816604  0.66069706  0.57778853    -0.57400
H2217       H  0.22862684  0.68022892  0.56051695     0.18100
O2218       O  0.21198561  0.74148577  0.63533927    -0.64200
H2219       H  0.26133422  0.72135229  0.65325727     0.16600
C2220       C  0.32276301  0.70647942  0.62979597     0.28800
C2221       C  0.35104116  0.69908228  0.63756202    -0.25100
C2222       C  0.35802371  0.67083160  0.64547241    -0.24300
C2223       C  0.33562787  0.65007295  0.64587698     0.40300
C2224       C  0.30765373  0.65743096  0.63753113    -0.26800
O2225       O  0.31688749  0.73410822  0.62172136    -0.58700
H2226       H  0.36749682  0.71556228  0.63745613     0.15900
O2227       O  0.34052531  0.62255978  0.65496327    -0.60100
H2228       H  0.29101758  0.64110884  0.63755664     0.14400
H2229       H  0.19672422  0.73151755  0.64642500     0.46200
H2230       H  0.31326763  0.74459076  0.63995077     0.41600
H2231       H  0.34471555  0.61144864  0.63719179     0.45000
H2232       H  0.29093313  0.67279640  0.56566465     0.36500
C2233       C  0.06080673  0.71792931  0.64633641    -0.27700
C2234       C  0.05950044  0.73508387  0.67118755     0.01900
C2235       C  0.07471610  0.76134767  0.67107707     0.30000
C2236       C  0.09106425  0.76965166  0.64669323    -0.19500
C2237       C  0.09262397  0.75222928  0.62185558    -0.28900
C2238       C  0.07700893  0.72609667  0.62209054     0.44000
C2239       C  0.04294246  0.72428281  0.69696362     0.05200
O2240       O  0.07510777  0.77825408  0.69525503    -0.57400
H2241       H  0.10295047  0.78963991  0.64748462     0.18100
O2242       O  0.07713094  0.70823708  0.59861818    -0.64200
H2243       H  0.04917175  0.69777976  0.64571882     0.16600
C2244       C  0.02011367  0.73987178  0.70972112     0.28800
C2245       C  0.00279448  0.72726837  0.73135511    -0.25100
C2246       C  0.00751285  0.69889180  0.74063978    -0.24300
C2247       C  0.03135636  0.68401688  0.72890852     0.40300
C2248       C  0.04851628  0.69656730  0.70736719    -0.26800
O2249       O  0.01351221  0.76687794  0.70024569    -0.58700
H2250       H  0.98461612  0.73922912  0.73971126     0.15900
O2251       O  0.03757795  0.65662895  0.73752775    -0.60100
H2252       H  0.06601401  0.68419569  0.69818536     0.14400
H2253       H  0.09168821  0.69335248  0.60298791     0.46200
H2254       H  0.00192273  0.76394129  0.68262025     0.41600
H2255       H  0.04985398  0.65891919  0.75478918     0.45000
H2256       H  0.06447615  0.79590027  0.69003042     0.36500
loop_ 
_geom_bond_atom_site_label_1 
_geom_bond_atom_site_label_2 
_geom_bond_distance 
_geom_bond_site_symmetry_2 
_ccdc_geom_bond_type 
O1          Cr19   1.994       .  S
O1            C9   1.262       .  A
O2          Cr19   1.976       .  S
O2            C3   1.257       .  A
C3            O4   1.269       .  A
C3         C2213   1.471       .  S
O4          Cr20   2.016       .  S
O5          Cr20   2.013       .  S
O5            C6   1.264       .  A
C6            O7   1.263       .  A
C6         C2237   1.512       .  S
O7          Cr21   2.010       .  S
O8          Cr21   2.003       .  S
O8            C9   1.266       .  A
C9         C2189   1.495       .  S
O10         Cr19   2.009       .  S
O10          C18   1.265       .  A
O11         Cr19   2.010       .  S
O11          C12   1.271       .  A
C12          O13   1.266       .  A
C12        C2117   1.497       .  S
O13         Cr20   1.999       .  S
O14         Cr20   2.004       .  S
O14          C15   1.268       .  A
C15          O16   1.268       .  A
C15        C2165   1.500       .  S
O16         Cr21   2.007       .  S
O17         Cr21   2.003       .  S
O17          C18   1.264       .  A
C18        C2150   1.506       .  S
Cr19         O22   1.786       .  S
Cr20         O22   1.776       .  S
Cr21         O22   1.783       .  S
O23         Cr41   1.979       .  S
O23          C31   1.262       .  A
O24         Cr41   1.984       .  S
O24          C25   1.260       .  A
C25          O26   1.268       .  A
C25        C2198   1.478       .  S
O26         Cr42   2.017       .  S
O27         Cr42   2.002       .  S
O27          C28   1.263       .  A
C28          O29   1.259       .  A
C28        C2093   1.491       .  S
O29         Cr43   1.993       .  S
O30         Cr43   2.001       .  S
O30          C31   1.265       .  A
C31        C2069   1.485       .  S
O32         Cr41   1.995       .  S
O32          C40   1.263       .  A
O33         Cr41   2.001       .  S
O33          C34   1.268       .  A
C34          O35   1.265       .  A
C34        C1997   1.489       .  S
O35         Cr42   1.992       .  S
O36         Cr42   1.999       .  S
O36          C37   1.266       .  A
C37          O38   1.269       .  A
C37        C2021   1.499       .  S
O38         Cr43   2.009       .  S
O39         Cr43   1.992       .  S
O39          C40   1.262       .  A
C40        C2045   1.491       .  S
Cr41         O44   1.770       .  S
Cr42         O44   1.768       .  S
Cr43         O44   1.775       .  S
O45         Cr63   2.034       .  S
O45          C53   1.272       .  A
O46         Cr63   1.954       .  S
O46          C47   1.253       .  A
C47          O48   1.272       .  A
C47        C2078   1.469       .  S
O48         Cr64   2.041       .  S
O49         Cr64   1.973       .  S
O49          C50   1.258       .  A
C50          O51   1.271       .  A
C50        C1925   1.502       .  S
O51         Cr65   2.033       .  S
O52         Cr65   1.965       .  S
O52          C53   1.255       .  A
C53        C2222   1.498       .  S
O54         Cr63   1.979       .  S
O54          C62   1.263       .  A
O55         Cr63   2.051       .  S
O55          C56   1.274       .  A
C56          O57   1.258       .  A
C56        C1901   1.502       .  S
O57         Cr64   1.969       .  S
O58         Cr64   2.047       .  S
O58          C59   1.277       .  A
C59          O60   1.258       .  A
C59        C1949   1.504       .  S
O60         Cr65   1.964       .  S
O61         Cr65   2.035       .  S
O61          C62   1.274       .  A
C62        C1973   1.498       .  S
Cr63         O66   1.766       .  S
Cr64         O66   1.766       .  S
Cr65         O66   1.766       .  S
O67         Cr85   1.984       .  S
O67          C75   1.262       .  A
O68         Cr85   1.979       .  S
O68          C69   1.262       .  A
C69          O70   1.270       .  A
C69        C1853   1.471       .  S
O70         Cr86   2.012       .  S
O71         Cr86   2.003       .  S
O71          C72   1.261       .  A
C72          O73   1.260       .  A
C72        C1886   1.491       .  S
O73         Cr87   2.005       .  S
O74         Cr87   1.994       .  S
O74          C75   1.263       .  A
C75        C1829   1.484       .  S
O76         Cr85   2.001       .  S
O76          C84   1.264       .  A
O77         Cr85   2.002       .  S
O77          C78   1.267       .  A
C78          O79   1.260       .  A
C78        C1757   1.480       .  S
O79         Cr86   1.980       .  S
O80         Cr86   1.997       .  S
O80          C81   1.266       .  A
C81          O82   1.270       .  A
C81        C1790   1.503       .  S
O82         Cr87   2.014       .  S
O83         Cr87   1.988       .  S
O83          C84   1.263       .  A
C84        C1814   1.494       .  S
Cr85         O88   1.775       .  S
Cr86         O88   1.773       .  S
Cr87         O88   1.774       .  S
O89        Cr107   1.986       .  S
O89          C97   1.261       .  A
O90        Cr107   1.986       .  S
O90          C91   1.259       .  A
C91          O92   1.266       .  A
C91        C1685   1.472       .  S
O92        Cr108   2.007       .  S
O93        Cr108   2.012       .  S
O93          C94   1.265       .  A
C94          O95   1.258       .  A
C94        C1709   1.488       .  S
O95        Cr109   1.989       .  S
O96        Cr109   2.002       .  S
O96          C97   1.264       .  A
C97        C1862   1.491       .  S
O98        Cr107   2.016       .  S
O98         C106   1.267       .  A
O99        Cr107   1.994       .  S
O99         C100   1.267       .  A
C100        O101   1.266       .  A
C100       C1661   1.482       .  S
O101       Cr108   1.998       .  S
O102       Cr108   1.990       .  S
O102        C103   1.264       .  A
C103        O104   1.269       .  A
C103       C1982   1.496       .  S
O104       Cr109   2.014       .  S
O105       Cr109   1.988       .  S
O105        C106   1.262       .  A
C106       C1733   1.496       .  S
Cr107       O110   1.780       .  S
Cr108       O110   1.777       .  S
Cr109       O110   1.781       .  S
O111       Cr129   2.029       .  S
O111        C119   1.271       .  A
O112       Cr129   1.956       .  S
O112        C113   1.253       .  A
C113        O114   1.271       .  A
C113       C1838   1.470       .  S
O114       Cr130   2.039       .  S
O115       Cr130   1.971       .  S
O115        C116   1.259       .  A
C116        O117   1.273       .  A
C116       C1637   1.501       .  S
O117       Cr131   2.035       .  S
O118       Cr131   1.962       .  S
O118        C119   1.254       .  A
C119       C1694   1.493       .  S
O120       Cr129   1.965       .  S
O120        C128   1.258       .  A
O121       Cr129   2.042       .  S
O121        C122   1.273       .  A
C122        O123   1.259       .  A
C122       C1589   1.493   1_655  S
O123       Cr130   1.967       .  S
O124       Cr130   2.043       .  S
O124        C125   1.274       .  A
C125        O126   1.258       .  A
C125       C1613   1.499   1_655  S
O126       Cr131   1.961       .  S
O127       Cr131   2.042       .  S
O127        C128   1.275       .  A
C128       C2174   1.496       .  S
Cr129       O132   1.762       .  S
Cr130       O132   1.767       .  S
Cr131       O132   1.765       .  S
O133       Cr151   2.020       .  S
O133        C141   1.270       .  A
O134       Cr151   1.955       .  S
O134        C135   1.253       .  A
C135        O136   1.272       .  A
C135       C1550   1.477       .  S
O136       Cr152   2.041       .  S
O137       Cr152   1.968       .  S
O137        C138   1.258       .  A
C138        O139   1.270       .  A
C138       C1565   1.496       .  S
O139       Cr153   2.029       .  S
O140       Cr153   1.966       .  S
O140        C141   1.256       .  A
C141       C1526   1.488       .  S
O142       Cr151   1.973       .  S
O142        C150   1.261       .  A
O143       Cr151   2.035       .  S
O143        C144   1.272       .  A
C144        O145   1.258       .  A
C144       C1478   1.494       .  S
O145       Cr152   1.968       .  S
O146       Cr152   2.037       .  S
O146        C147   1.273       .  A
C147        O148   1.258       .  A
C147       C2054   1.479       .  S
O148       Cr153   1.959       .  S
O149       Cr153   2.035       .  S
O149        C150   1.273       .  A
C150       C1493   1.499       .  S
Cr151       O154   1.760       .  S
Cr152       O154   1.767       .  S
Cr153       O154   1.766       .  S
O155       Cr173   1.986       .  S
O155        C163   1.263       .  A
O156       Cr173   1.980       .  S
O156        C157   1.259       .  A
C157        O158   1.263       .  A
C157       C1517   1.473       .  S
O158       Cr174   2.003       .  S
O159       Cr174   2.012       .  S
O159        C160   1.266       .  A
C160        O161   1.263       .  A
C160       C1445   1.497       .  S
O161       Cr175   2.001       .  S
O162       Cr175   2.000       .  S
O162        C163   1.265       .  A
C163       C1430   1.485       .  S
O164       Cr173   2.007       .  S
O164        C172   1.264       .  A
O165       Cr173   2.001       .  S
O165        C166   1.269       .  A
C166        O167   1.267       .  A
C166       C1382   1.485   1_556  S
O167       Cr174   2.008       .  S
O168       Cr174   1.990       .  S
O168        C169   1.263       .  A
C169        O170   1.264       .  A
C169       C1397   1.488       .  S
O170       Cr175   1.995       .  S
O171       Cr175   2.003       .  S
O171        C172   1.264       .  A
C172       C1781   1.503       .  S
Cr173       O176   1.779       .  S
Cr174       O176   1.778       .  S
Cr175       O176   1.783       .  S
O177       Cr195   2.023       .  S
O177        C185   1.269       .  A
O178       Cr195   1.959       .  S
O178        C179   1.255       .  A
C179        O180   1.270       .  A
C179       C1421   1.472       .  S
O180       Cr196   2.036       .  S
O181       Cr196   1.981       .  S
O181        C182   1.259       .  A
C182        O183   1.270       .  A
C182       C1349   1.496       .  S
O183       Cr197   2.032       .  S
O184       Cr197   1.971       .  S
O184        C185   1.258       .  A
C185       C1541   1.493       .  S
O186       Cr195   1.975       .  S
O186        C194   1.261       .  A
O187       Cr195   2.039       .  S
O187        C188   1.272       .  A
C188        O189   1.260       .  A
C188       C1334   1.499       .  S
O189       Cr196   1.971       .  S
O190       Cr196   2.047       .  S
O190        C191   1.276       .  A
C191        O192   1.259       .  A
C191       C1742   1.497       .  S
O192       Cr197   1.964       .  S
O193       Cr197   2.037       .  S
O193        C194   1.274       .  A
C194       C1958   1.502       .  S
Cr195       O198   1.764       .  S
Cr196       O198   1.768       .  S
Cr197       O198   1.767       .  S
O199       Cr217   2.042       .  S
O199        C207   1.274       .  A
O200       Cr217   1.957       .  S
O200        C201   1.254       .  A
C201        O202   1.272       .  A
C201       C1262   1.480       .  S
O202       Cr218   2.048       .  S
O203       Cr218   1.970       .  S
O203        C204   1.258       .  A
C204        O205   1.271       .  A
C204       C1310   1.494       .  S
O205       Cr219   2.032       .  S
O206       Cr219   1.964       .  S
O206        C207   1.257       .  A
C207       C1286   1.501       .  S
O208       Cr217   1.975       .  S
O208        C216   1.261       .  A
O209       Cr217   2.047       .  S
O209        C210   1.275       .  A
C210        O211   1.259       .  A
C210       C1229   1.497   1_554  S
O211       Cr218   1.970       .  S
O212       Cr218   2.045       .  S
O212        C213   1.276       .  A
C213        O214   1.261       .  A
C213       C1502   1.504   1_554  S
O214       Cr219   1.970       .  S
O215       Cr219   2.036       .  S
O215        C216   1.272       .  A
C216       C2030   1.492       .  S
Cr217       O220   1.766       .  S
Cr218       O220   1.769       .  S
Cr219       O220   1.770       .  S
O221       Cr239   2.026       .  S
O221        C229   1.270       .  A
O222       Cr239   1.950       .  S
O222        C223   1.253       .  A
C223        O224   1.273       .  A
C223       C1181   1.473       .  S
O224       Cr240   2.044       .  S
O225       Cr240   1.960       .  S
O225        C226   1.256       .  A
C226        O227   1.270       .  A
C226       C1214   1.490       .  S
O227       Cr241   2.022       .  S
O228       Cr241   1.966       .  S
O228        C229   1.254       .  A
C229       C1253   1.488       .  S
O230       Cr239   1.960       .  S
O230        C238   1.258       .  A
O231       Cr239   2.034       .  S
O231        C232   1.271       .  A
C232        O233   1.261       .  A
C232       C1166   1.495   1_455  S
O233       Cr240   1.979       .  S
O234       Cr240   2.046       .  S
O234        C235   1.274       .  A
C235        O236   1.256       .  A
C235       C1805   1.488   1_455  S
O236       Cr241   1.955       .  S
O237       Cr241   2.032       .  S
O237        C238   1.274       .  A
C238       C1406   1.484       .  S
Cr239       O242   1.759       .  S
Cr240       O242   1.769       .  S
Cr241       O242   1.766       .  S
O243       Cr261   1.990       .  S
O243        C251   1.264       .  A
O244       Cr261   1.984       .  S
O244        C245   1.260       .  A
C245        O246   1.270       .  A
C245       C1277   1.474       .  S
O246       Cr262   2.016       .  S
O247       Cr262   2.010       .  S
O247        C248   1.261       .  A
C248        O249   1.260       .  A
C248       C1133   1.503       .  S
O249       Cr263   2.001       .  S
O250       Cr263   1.992       .  S
O250        C251   1.264       .  A
C251       C1190   1.486       .  S
O252       Cr261   1.996       .  S
O252        C260   1.262       .  A
O253       Cr261   2.006   1_565  S
O253        C254   1.266       .  A
C254        O255   1.261   1_565  A
C254       C1109   1.490       .  S
O255       Cr262   1.984       .  S
O256       Cr262   2.003       .  S
O256        C257   1.268       .  A
C257        O258   1.271       .  A
C257       C2141   1.504   1_545  S
O258       Cr263   2.015       .  S
O259       Cr263   1.995       .  S
O259        C260   1.264       .  A
C260       C1622   1.489   1_545  S
Cr261       O264   1.781       .  S
Cr262       O264   1.778       .  S
Cr263       O264   1.779       .  S
O265       Cr283   2.006       .  S
O265        C273   1.266       .  A
O266       Cr283   1.983       .  S
O266        C267   1.259       .  A
C267        O268   1.264       .  A
C267       C1013   1.486       .  S
O268       Cr284   2.002       .  S
O269       Cr284   2.020       .  S
O269        C270   1.272       .  A
C270        O271   1.263       .  A
C270       C1454   1.499   1_455  S
O271       Cr285   1.990       .  S
O272       Cr285   1.993       .  S
O272        C273   1.265       .  A
C273       C1037   1.498       .  S
O274       Cr283   1.988       .  S
O274        C282   1.257       .  A
O275       Cr283   1.999       .  S
O275        C276   1.265       .  A
C276        O277   1.264       .  A
C276       C1094   1.486       .  S
O277       Cr284   1.993       .  S
O278       Cr284   1.982       .  S
O278        C279   1.260       .  A
C279        O280   1.267       .  A
C279       C1061   1.470       .  S
O280       Cr285   2.006       .  S
O281       Cr285   2.003       .  S
O281        C282   1.263       .  A
C282       C2006   1.483       .  S
Cr283       O286   1.786       .  S
Cr284       O286   1.779       .  S
Cr285       O286   1.773       .  S
O287       Cr305   1.961       .  S
O287        C295   1.259       .  A
O288       Cr305   2.025       .  S
O288        C289   1.270       .  A
C289        O290   1.261       .  A
C289        C974   1.491       .  S
O290       Cr306   1.974       .  S
O291       Cr306   2.045       .  S
O291        C292   1.272       .  A
C292        O293   1.257       .  A
C292       C1934   1.504       .  S
O293       Cr307   1.972       .  S
O294       Cr307   2.031       .  S
O294        C295   1.273       .  A
C295        C950   1.488       .  S
O296       Cr305   2.018       .  S
O296        C304   1.267       .  A
O297       Cr305   1.964       .  S
O297        C298   1.257       .  A
C298        O299   1.272       .  A
C298       C1070   1.497       .  S
O299       Cr306   2.038       .  S
O300       Cr306   1.953       .  S
O300        C301   1.256       .  A
C301        O302   1.274       .  A
C301        C989   1.484       .  S
O302       Cr307   2.046       .  S
O303       Cr307   1.983       .  S
O303        C304   1.261       .  A
C304       C1238   1.490       .  S
Cr305       O308   1.772       .  S
Cr306       O308   1.771       .  S
Cr307       O308   1.774       .  S
O309       Cr327   1.956       .  S
O309        C317   1.258       .  A
O310       Cr327   2.046       .  S
O310        C311   1.276       .  A
C311        O312   1.259       .  A
C311        C893   1.499       .  S
O312       Cr328   1.968       .  S
O313       Cr328   2.049       .  S
O313        C314   1.275       .  A
C314        O315   1.259       .  A
C314       C1142   1.502       .  S
O315       Cr329   1.970       .  S
O316       Cr329   2.051       .  S
O316        C317   1.276       .  A
C317        C917   1.500       .  S
O318       Cr327   2.039       .  S
O318        C326   1.272       .  A
O319       Cr327   1.964       .  S
O319        C320   1.255       .  A
C320        O321   1.274       .  A
C320        C998   1.497       .  S
O321       Cr328   2.039       .  S
O322       Cr328   1.956       .  S
O322        C323   1.254       .  A
C323        O324   1.273       .  A
C323       C1085   1.484       .  S
O324       Cr329   2.047       .  S
O325       Cr329   1.972       .  S
O325        C326   1.258       .  A
C326       C1469   1.490       .  S
Cr327       O330   1.768       .  S
Cr328       O330   1.762       .  S
Cr329       O330   1.769       .  S
O331       Cr349   2.013       .  S
O331        C339   1.271       .  A
O332       Cr349   2.011       .  S
O332        C333   1.265       .  A
C333        O334   1.262       .  A
C333        C797   1.501   1_545  S
O334       Cr350   1.999       .  S
O335       Cr350   2.014   1_565  S
O335        C336   1.270       .  A
C336        O337   1.262   1_565  A
C336       C1646   1.487       .  S
O337       Cr351   1.987       .  S
O338       Cr351   1.999       .  S
O338        C339   1.267       .  A
C339        C821   1.500   1_545  S
O340       Cr349   2.012       .  S
O340        C348   1.262       .  A
O341       Cr349   2.005       .  S
O341        C342   1.267       .  A
C342        O343   1.263       .  A
C342        C869   1.492       .  S
O343       Cr350   1.986       .  S
O344       Cr350   1.981       .  S
O344        C345   1.260       .  A
C345        O346   1.269       .  A
C345        C854   1.476       .  S
O346       Cr351   2.015       .  S
O347       Cr351   2.006       .  S
O347        C348   1.262       .  A
C348       C1373   1.505       .  S
Cr349       O352   1.777       .  S
Cr350       O352   1.778       .  S
Cr351       O352   1.775       .  S
O353       Cr371   2.008       .  S
O353        C361   1.268       .  A
O354       Cr371   1.991       .  S
O354        C355   1.262       .  A
C355        O356   1.262       .  A
C355        C749   1.495       .  S
O356       Cr372   2.001       .  S
O357       Cr372   2.007       .  S
O357        C358   1.271       .  A
C358        O359   1.267       .  A
C358       C1358   1.489       .  S
O359       Cr373   2.003       .  S
O360       Cr373   1.985       .  S
O360        C361   1.264       .  A
C361       C1022   1.492       .  S
O362       Cr371   1.994       .  S
O362        C370   1.261       .  A
O363       Cr371   2.014       .  S
O363        C364   1.266       .  A
C364        O365   1.263       .  A
C364        C845   1.490       .  S
O365       Cr372   1.987       .  S
O366       Cr372   1.968       .  S
O366        C367   1.257       .  A
C367        O368   1.266       .  A
C367        C773   1.476       .  S
O368       Cr373   2.016       .  S
O369       Cr373   2.007       .  S
O369        C370   1.264       .  A
C370       C1157   1.498       .  S
Cr371       O374   1.783       .  S
Cr372       O374   1.775       .  S
Cr373       O374   1.775       .  S
O375       Cr393   1.966       .  S
O375        C383   1.261       .  A
O376       Cr393   2.031       .  S
O376        C377   1.273       .  A
C377        O378   1.261       .  A
C377        C926   1.495       .  S
O378       Cr394   1.973       .  S
O379       Cr394   2.030       .  S
O379        C380   1.270       .  A
C380        O381   1.259       .  A
C380       C1301   1.495       .  S
O381       Cr395   1.970       .  S
O382       Cr395   2.027       .  S
O382        C383   1.273       .  A
C383        C725   1.483       .  S
O384       Cr393   2.016       .  S
O384        C392   1.266       .  A
O385       Cr393   1.973       .  S
O385        C386   1.258       .  A
C386        O387   1.268       .  A
C386        C782   1.486       .  S
O387       Cr394   2.020       .  S
O388       Cr394   1.961       .  S
O388        C389   1.255       .  A
C389        O390   1.269       .  A
C389        C878   1.470       .  S
O390       Cr395   2.030       .  S
O391       Cr395   1.972       .  S
O391        C392   1.258       .  A
C392       C1766   1.490       .  S
Cr393       O396   1.770       .  S
Cr394       O396   1.763       .  S
Cr395       O396   1.768       .  S
O397       Cr415   1.997       .  S
O397        C405   1.263       .  A
O398       Cr415   1.986       .  S
O398        C399   1.261       .  A
C399        O400   1.265       .  A
C399        C941   1.487       .  S
O400       Cr416   2.009       .  S
O401       Cr416   1.997       .  S
O401        C402   1.268   1_554  A
C402        O403   1.267   1_556  A
C402       C2102   1.479       .  S
O403       Cr417   2.002       .  S
O404       Cr417   1.991       .  S
O404        C405   1.263       .  A
C405        C662   1.489   1_554  S
O406       Cr415   1.987       .  S
O406        C414   1.262       .  A
O407       Cr415   2.004       .  S
O407        C408   1.263       .  A
C408        O409   1.262       .  A
C408        C710   1.485       .  S
O409       Cr416   1.984       .  S
O410       Cr416   1.979       .  S
O410        C411   1.259       .  A
C411        O412   1.265       .  A
C411        C686   1.469       .  S
O412       Cr417   2.006       .  S
O413       Cr417   2.018       .  S
O413        C414   1.268       .  A
C414       C1598   1.498       .  S
Cr415       O418   1.776       .  S
Cr416       O418   1.774       .  S
Cr417       O418   1.771       .  S
O419       Cr437   1.999       .  S
O419        C427   1.263       .  A
O420       Cr437   1.985       .  S
O420        C421   1.262       .  A
C421        O422   1.267       .  A
C421        C605   1.490       .  S
O422       Cr438   2.004       .  S
O423       Cr438   2.001       .  S
O423        C424   1.267       .  A
C424        O425   1.263       .  A
C424       C1718   1.480       .  S
O425       Cr439   1.986       .  S
O426       Cr439   2.009       .  S
O426        C427   1.267       .  A
C427        C806   1.500       .  S
O428       Cr437   1.983       .  S
O428        C436   1.260       .  A
O429       Cr437   1.994       .  S
O429        C430   1.261       .  A
C430        O431   1.261       .  A
C430        C677   1.485       .  S
O431       Cr438   1.989       .  S
O432       Cr438   1.986       .  S
O432        C433   1.260       .  A
C433        O434   1.267       .  A
C433        C638   1.475       .  S
O434       Cr439   2.011       .  S
O435       Cr439   2.001       .  S
O435        C436   1.265       .  A
C436       C1118   1.480       .  S
Cr437       O440   1.780       .  S
Cr438       O440   1.773       .  S
Cr439       O440   1.769       .  S
O441       Cr459   2.006       .  S
O441        C449   1.269       .  A
O442       Cr459   1.992       .  S
O442        C443   1.263       .  A
C443        O444   1.266       .  A
C443        C734   1.496       .  S
O444       Cr460   2.009       .  S
O445       Cr460   2.009       .  S
O445        C446   1.269       .  A
C446        O447   1.264       .  A
C446       C1205   1.487       .  S
O447       Cr461   1.990       .  S
O448       Cr461   1.996       .  S
O448        C449   1.267       .  A
C449        C902   1.493       .  S
O450       Cr459   2.010       .  S
O450        C458   1.263       .  A
O451       Cr459   2.005       .  S
O451        C452   1.263       .  A
C452        O453   1.262       .  A
C452        C629   1.478       .  S
O453       Cr460   1.990       .  S
O454       Cr460   1.984       .  S
O454        C455   1.261       .  A
C455        O456   1.267       .  A
C455        C701   1.471       .  S
O456       Cr461   2.009       .  S
O457       Cr461   2.006       .  S
O457        C458   1.262       .  A
C458       C2126   1.495       .  S
Cr459       O462   1.775       .  S
Cr460       O462   1.777       .  S
Cr461       O462   1.774       .  S
O463       Cr481   2.006       .  S
O463        C471   1.266       .  A
O464       Cr481   1.996       .  S
O464        C465   1.264       .  A
C465        O466   1.266       .  A
C465        C830   1.504       .  S
O466       Cr482   2.015       .  S
O467       Cr482   1.995       .  S
O467        C468   1.266       .  A
C468        O469   1.267       .  A
C468       C1877   1.485   1_556  S
O469       Cr483   2.006       .  S
O470       Cr483   1.976       .  S
O470        C471   1.262       .  A
C471        C614   1.485       .  S
O472       Cr481   1.999       .  S
O472        C480   1.262       .  A
O473       Cr481   2.004       .  S
O473        C474   1.264       .  A
C474        O475   1.259       .  A
C474        C557   1.487       .  S
O475       Cr482   1.972       .  S
O476       Cr482   1.985       .  S
O476        C477   1.261       .  A
C477        O478   1.264       .  A
C477        C581   1.468       .  S
O478       Cr483   2.001       .  S
O479       Cr483   2.014       .  S
O479        C480   1.266       .  A
C480       C1910   1.505       .  S
Cr481       O484   1.781       .  S
Cr482       O484   1.778       .  S
Cr483       O484   1.773       .  S
O485       Cr503   2.012       .  S
O485        C493   1.270       .  A
O486       Cr503   1.993       .  S
O486        C487   1.260       .  A
C487        O488   1.262       .  A
C487       C1046   1.496       .  S
O488       Cr504   2.000       .  S
O489       Cr504   2.008       .  S
O489        C490   1.271       .  A
C490        O491   1.264       .  A
C490       C1574   1.481       .  S
O491       Cr505   1.986       .  S
O492       Cr505   1.986       .  S
O492        C493   1.266       .  A
C493        C758   1.490       .  S
O494       Cr503   1.996       .  S
O494        C502   1.259       .  A
O495       Cr503   2.014       .  S
O495        C496   1.267       .  A
C496        O497   1.261       .  A
C496        C533   1.477       .  S
O497       Cr504   1.979       .  S
O498       Cr504   1.978       .  S
O498        C499   1.257       .  A
C499        O500   1.268       .  A
C499        C566   1.479       .  S
O500       Cr505   2.020       .  S
O501       Cr505   1.995       .  S
O501        C502   1.260       .  A
C502       C1670   1.488       .  S
Cr503       O506   1.777       .  S
Cr504       O506   1.773       .  S
Cr505       O506   1.770       .  S
O507       Cr525   1.951       .  S
O507        C515   1.255       .  A
O508       Cr525   2.026       .  S
O508        C509   1.271       .  A
C509        O510   1.260       .  A
C509        C653   1.481       .  S
O510       Cr526   1.966       .  S
O511       Cr526   2.053       .  S
O511        C512   1.275       .  A
C512        O513   1.261       .  A
C512       C2246   1.506   1_655  S
O513       Cr527   1.977       .  S
O514       Cr527   2.045       .  S
O514        C515   1.275       .  A
C515        C965   1.489   1_655  S
O516       Cr525   2.031       .  S
O516        C524   1.270       .  A
O517       Cr525   1.961       .  S
O517        C518   1.256       .  A
C518        O519   1.272       .  A
C518        C590   1.489       .  S
O519       Cr526   2.031       .  S
O520       Cr526   1.949       .  S
O520        C521   1.253       .  A
C521        O522   1.272       .  A
C521        C542   1.485       .  S
O522       Cr527   2.042       .  S
O523       Cr527   1.976       .  S
O523        C524   1.259       .  A
C524       C1325   1.494       .  S
Cr525       O528   1.772       .  S
Cr526       O528   1.765       .  S
Cr527       O528   1.769       .  S
C529        C530   1.404       .  A
C529        C534   1.399       .  A
C529        H539   1.084       .  S
C530        C535   1.489       .  S
C530        C531   1.412       .  A
C531        C532   1.404       .  A
C531        O536   1.371       .  S
C532        C533   1.402       .  A
C532        H537   1.083       .  S
C533        C534   1.410       .  A
C534        O538   1.372       .  S
C535        C540   1.407       .  A
C535        C544   1.407       .  A
O536        H552   0.992       .  S
O538        H549   0.994       .  S
C540        C541   1.396       .  A
C540        O545   1.373       .  S
C541        C542   1.407       .  A
C541        H546   1.082       .  S
C542        C543   1.410       .  A
C543        C544   1.406       .  A
C543        O547   1.371       .  S
C544        H548   1.083       .  S
O545        H550   0.991       .  S
O547        H551   0.990       .  S
C553        C554   1.403       .  A
C553        C558   1.403       .  A
C553        H563   1.083       .  S
C554        C559   1.481       .  S
C554        C555   1.408       .  A
C555        C556   1.396       .  A
C555        O560   1.372       .  S
C556        C557   1.407       .  A
C556        H561   1.083       .  S
C557        C558   1.414       .  A
C558        O562   1.371       .  S
C559        C564   1.412       .  A
C559        C568   1.395       .  A
O560        H576   0.991       .  S
O562        H573   0.992       .  S
C564        C565   1.412       .  A
C564        O569   1.371       .  S
C565        C566   1.406       .  A
C565        H570   1.083       .  S
C566        C567   1.413       .  A
C567        C568   1.388       .  A
C567        O571   1.372       .  S
C568        H572   1.084       .  S
O569        H574   0.992       .  S
O571        H575   0.990       .  S
C577        C578   1.408       .  A
C577        C582   1.405       .  A
C577        H587   1.084       .  S
C578        C583   1.486       .  S
C578        C579   1.407       .  A
C579        C580   1.398       .  A
C579        O584   1.372       .  S
C580        C581   1.402       .  A
C580        H585   1.085       .  S
C581        C582   1.406       .  A
C582        O586   1.371       .  S
C583        C588   1.406       .  A
C583        C592   1.405       .  A
O584        H600   0.991       .  S
O586        H597   0.991       .  S
C588        C589   1.401       .  A
C588        O593   1.372       .  S
C589        C590   1.410       .  A
C589        H594   1.083       .  S
C590        C591   1.410       .  A
C591        C592   1.403       .  A
C591        O595   1.371       .  S
C592        H596   1.084       .  S
O593        H598   0.991       .  S
O595        H599   0.990       .  S
C601        C602   1.401       .  A
C601        C606   1.396       .  A
C601        H611   1.083       .  S
C602        C607   1.486       .  S
C602        C603   1.410       .  A
C603        C604   1.405       .  A
C603        O608   1.372       .  S
C604        C605   1.409       .  A
C604        H609   1.083       .  S
C605        C606   1.414       .  A
C606        O610   1.371       .  S
C607        C612   1.408       .  A
C607        C616   1.404       .  A
O608        H624   0.991       .  S
O610        H621   0.992       .  S
C612        C613   1.399       .  A
C612        O617   1.373       .  S
C613        C614   1.405   1_554  A
C613        H618   1.084       .  S
C614        C615   1.414       .  A
C615        C616   1.403   1_556  A
C615        O619   1.372       .  S
C616        H620   1.084       .  S
O617        H622   0.991       .  S
O619        H623   0.992       .  S
C625        C626   1.408       .  A
C625        C630   1.406       .  A
C625        H635   1.083       .  S
C626        C631   1.492       .  S
C626        C627   1.409       .  A
C627        C628   1.401       .  A
C627        O632   1.371       .  S
C628        C629   1.403       .  A
C628        H633   1.084       .  S
C629        C630   1.408       .  A
C630        O634   1.372       .  S
C631        C636   1.411       .  A
C631        C640   1.404       .  A
O632        H648   0.992       .  S
O634        H645   0.992       .  S
C636        C637   1.408       .  A
C636        O641   1.372       .  S
C637        C638   1.404       .  A
C637        H642   1.084       .  S
C638        C639   1.408       .  A
C639        C640   1.401       .  A
C639        O643   1.372       .  S
C640        H644   1.084       .  S
O641        H646   0.991       .  S
O643        H647   0.991       .  S
C649        C650   1.402       .  A
C649        C654   1.400   1_455  A
C649        H659   1.083       .  S
C650        C655   1.486       .  S
C650        C651   1.411       .  A
C651        C652   1.404   1_455  A
C651        O656   1.372       .  S
C652        C653   1.404       .  A
C652        H657   1.084       .  S
C653        C654   1.410       .  A
C654        O658   1.372       .  S
C655        C660   1.409       .  A
C655        C664   1.401       .  A
O656        H672   0.992       .  S
O658        H669   0.992       .  S
C660        C661   1.404       .  A
C660        O665   1.372       .  S
C661        C662   1.407       .  A
C661        H666   1.084       .  S
C662        C663   1.415       .  A
C663        C664   1.400       .  A
C663        O667   1.372   1_556  S
C664        H668   1.084       .  S
O665        H670   0.991       .  S
O667        H671   0.992       .  S
C673        C674   1.401       .  A
C673        C678   1.401       .  A
C673        H683   1.084       .  S
C674        C679   1.485       .  S
C674        C675   1.410       .  A
C675        C676   1.403       .  A
C675        O680   1.372       .  S
C676        C677   1.404       .  A
C676        H681   1.083       .  S
C677        C678   1.415       .  A
C678        O682   1.372       .  S
C679        C684   1.411       .  A
C679        C688   1.403       .  A
O680        H696   0.992       .  S
O682        H693   0.992       .  S
C684        C685   1.403       .  A
C684        O689   1.371       .  S
C685        C686   1.401       .  A
C685        H690   1.081       .  S
C686        C687   1.410       .  A
C687        C688   1.398       .  A
C687        O691   1.373       .  S
C688        H692   1.084       .  S
O689        H694   0.990       .  S
O691        H695   0.991       .  S
C697        C698   1.409       .  A
C697        C702   1.407       .  A
C697        H707   1.083       .  S
C698        C703   1.491       .  S
C698        C699   1.411       .  A
C699        C700   1.394       .  A
C699        O704   1.372       .  S
C700        C701   1.401       .  A
C700        H705   1.083       .  S
C701        C702   1.406       .  A
C702        O706   1.371       .  S
C703        C708   1.411       .  A
C703        C712   1.404       .  A
O704        H720   0.992       .  S
O706        H717   0.990       .  S
C708        C709   1.405       .  A
C708        O713   1.372       .  S
C709        C710   1.406       .  A
C709        H714   1.083       .  S
C710        C711   1.410       .  A
C711        C712   1.398       .  A
C711        O715   1.370       .  S
C712        H716   1.084       .  S
O713        H718   0.991       .  S
O715        H719   0.992       .  S
C721        C722   1.409       .  A
C721        C726   1.407       .  A
C721        H731   1.083       .  S
C722        C727   1.496       .  S
C722        C723   1.411       .  A
C723        C724   1.400       .  A
C723        O728   1.371       .  S
C724        C725   1.404       .  A
C724        H729   1.084       .  S
C725        C726   1.410       .  A
C726        O730   1.372       .  S
C727        C732   1.409       .  A
C727        C736   1.407       .  A
O728        H744   0.992       .  S
O730        H741   0.991       .  S
C732        C733   1.405       .  A
C732        O737   1.372       .  S
C733        C734   1.410       .  A
C733        H738   1.083       .  S
C734        C735   1.413       .  A
C735        C736   1.404       .  A
C735        O739   1.371       .  S
C736        H740   1.083       .  S
O737        H742   0.992       .  S
O739        H743   0.992       .  S
C745        C746   1.403       .  A
C745        C750   1.403       .  A
C745        H755   1.083       .  S
C746        C751   1.494       .  S
C746        C747   1.412       .  A
C747        C748   1.404       .  A
C747        O752   1.372       .  S
C748        C749   1.407       .  A
C748        H753   1.083       .  S
C749        C750   1.417       .  A
C750        O754   1.372       .  S
C751        C756   1.411       .  A
C751        C760   1.405       .  A
O752        H768   0.991       .  S
O754        H765   0.992       .  S
C756        C757   1.405       .  A
C756        O761   1.372       .  S
C757        C758   1.407   1_545  A
C757        H762   1.082       .  S
C758        C759   1.412       .  A
C759        C760   1.402   1_565  A
C759        O763   1.371       .  S
C760        H764   1.083   1_545  S
O761        H766   0.992       .  S
O763        H767   0.992       .  S
C769        C770   1.409       .  A
C769        C774   1.408       .  A
C769        H779   1.083       .  S
C770        C775   1.485       .  S
C770        C771   1.406       .  A
C771        C772   1.392       .  A
C771        O776   1.372       .  S
C772        C773   1.405       .  A
C772        H777   1.085       .  S
C773        C774   1.407       .  A
C774        O778   1.370       .  S
C775        C780   1.404       .  A
C775        C784   1.407       .  A
O776        H792   0.990       .  S
O778        H789   0.991       .  S
C780        C781   1.401       .  A
C780        O785   1.371       .  S
C781        C782   1.409       .  A
C781        H786   1.084       .  S
C782        C783   1.410       .  A
C783        C784   1.402       .  A
C783        O787   1.372       .  S
C784        H788   1.084       .  S
O785        H790   0.992       .  S
O787        H791   0.992       .  S
C793        C794   1.410       .  A
C793        C798   1.411       .  A
C793        H803   1.083       .  S
C794        C799   1.501       .  S
C794        C795   1.409       .  A
C795        C796   1.403       .  A
C795        O800   1.372       .  S
C796        C797   1.410       .  A
C796        H801   1.083   1_565  S
C797        C798   1.413       .  A
C798        O802   1.371       .  S
C799        C804   1.409       .  A
C799        C808   1.409       .  A
O800        H816   0.992       .  S
O802        H813   0.992       .  S
C804        C805   1.406       .  A
C804        O809   1.372       .  S
C805        C806   1.411       .  A
C805        H810   1.083       .  S
C806        C807   1.412       .  A
C807        C808   1.408       .  A
C807        O811   1.370       .  S
C808        H812   1.083       .  S
O809        H814   0.991       .  S
O811        H815   0.991       .  S
C817        C818   1.404       .  A
C817        C822   1.403       .  A
C817        H827   1.083       .  S
C818        C823   1.502       .  S
C818        C819   1.413       .  A
C819        C820   1.412       .  A
C819        O824   1.372       .  S
C820        C821   1.411       .  A
C820        H825   1.084       .  S
C821        C822   1.413       .  A
C822        O826   1.372   1_565  S
C823        C828   1.412       .  A
C823        C832   1.406       .  A
O824        H840   0.992       .  S
O826        H837   0.991       .  S
C828        C829   1.406   1_554  A
C828        O833   1.372       .  S
C829        C830   1.407       .  A
C829        H834   1.083       .  S
C830        C831   1.419       .  A
C831        C832   1.410   1_556  A
C831        O835   1.371       .  S
C832        H836   1.083       .  S
O833        H838   0.992       .  S
O835        H839   0.992       .  S
C841        C842   1.401       .  A
C841        C846   1.401       .  A
C841        H851   1.084       .  S
C842        C847   1.489       .  S
C842        C843   1.411       .  A
C843        C844   1.407       .  A
C843        O848   1.371       .  S
C844        C845   1.406       .  A
C844        H849   1.083       .  S
C845        C846   1.413       .  A
C846        O850   1.369       .  S
C847        C852   1.407       .  A
C847        C856   1.408       .  A
O848        H864   0.992       .  S
O850        H861   0.993       .  S
C852        C853   1.399       .  A
C852        O857   1.372       .  S
C853        C854   1.405       .  A
C853        H858   1.083       .  S
C854        C855   1.407       .  A
C855        C856   1.408       .  A
C855        O859   1.371       .  S
C856        H860   1.083       .  S
O857        H862   0.991       .  S
O859        H863   0.992       .  S
C865        C866   1.403       .  A
C865        C870   1.403       .  A
C865        H875   1.084       .  S
C866        C871   1.489       .  S
C866        C867   1.411       .  A
C867        C868   1.404       .  A
C867        O872   1.373       .  S
C868        C869   1.406       .  A
C868        H873   1.083       .  S
C869        C870   1.415       .  A
C870        O874   1.371       .  S
C871        C876   1.411       .  A
C871        C880   1.406       .  A
O872        H888   0.992       .  S
O874        H885   0.992       .  S
C876        C877   1.400       .  A
C876        O881   1.371       .  S
C877        C878   1.403       .  A
C877        H882   1.084       .  S
C878        C879   1.407       .  A
C879        C880   1.401       .  A
C879        O883   1.372       .  S
C880        H884   1.083       .  S
O881        H886   0.991       .  S
O883        H887   0.991       .  S
C889        C890   1.403       .  A
C889        C894   1.404       .  A
C889        H899   1.084       .  S
C890        C895   1.501       .  S
C890        C891   1.414       .  A
C891        C892   1.411       .  A
C891        O896   1.373       .  S
C892        C893   1.407       .  A
C892        H897   1.083       .  S
C893        C894   1.417       .  A
C894        O898   1.372       .  S
C895        C900   1.410       .  A
C895        C904   1.411       .  A
O896        H912   0.993       .  S
O898        H909   0.992       .  S
C900        C901   1.401       .  A
C900        O905   1.371       .  S
C901        C902   1.407       .  A
C901        H906   1.084       .  S
C902        C903   1.412       .  A
C903        C904   1.409       .  A
C903        O907   1.371       .  S
C904        H908   1.083       .  S
O905        H910   0.992       .  S
O907        H911   0.992       .  S
C913        C914   1.407       .  A
C913        C918   1.412       .  A
C913        H923   1.083       .  S
C914        C919   1.489       .  S
C914        C915   1.403       .  A
C915        C916   1.398       .  A
C915        O920   1.372       .  S
C916        C917   1.412       .  A
C916        H921   1.083       .  S
C917        C918   1.414       .  A
C918        O922   1.371       .  S
C919        C924   1.409       .  A
C919        C928   1.401       .  A
O920        H936   0.991       .  S
O922        H933   0.992       .  S
C924        C925   1.404       .  A
C924        O929   1.371       .  S
C925        C926   1.408       .  A
C925        H930   1.083       .  S
C926        C927   1.417       .  A
C927        C928   1.404       .  A
C927        O931   1.372       .  S
C928        H932   1.084       .  S
O929        H934   0.992       .  S
O931        H935   0.992       .  S
C937        C938   1.406       .  A
C937        C942   1.402       .  A
C937        H947   1.083       .  S
C938        C943   1.490       .  S
C938        C939   1.409       .  A
C939        C940   1.401   1_556  A
C939        O944   1.372       .  S
C940        C941   1.407       .  A
C940        H945   1.083       .  S
C941        C942   1.411   1_554  A
C942        O946   1.372       .  S
C943        C948   1.408       .  A
C943        C952   1.406       .  A
O944        H960   0.991   1_556  S
O946        H957   0.992       .  S
C948        C949   1.402       .  A
C948        O953   1.373       .  S
C949        C950   1.408       .  A
C949        H954   1.084       .  S
C950        C951   1.410       .  A
C951        C952   1.404       .  A
C951        O955   1.371       .  S
C952        H956   1.083       .  S
O953        H958   0.992       .  S
O955        H959   0.991       .  S
C961        C962   1.400       .  A
C961        C966   1.398       .  A
C961        H971   1.084       .  S
C962        C967   1.488       .  S
C962        C963   1.411       .  A
C963        C964   1.408       .  A
C963        O968   1.372       .  S
C964        C965   1.405       .  A
C964        H969   1.083   1_455  S
C965        C966   1.417       .  A
C966        O970   1.373       .  S
C967        C972   1.407       .  A
C967        C976   1.406       .  A
O968        H984   0.991       .  S
O970        H981   0.991       .  S
C972        C973   1.401       .  A
C972        O977   1.371       .  S
C973        C974   1.408       .  A
C973        H978   1.083       .  S
C974        C975   1.413       .  A
C975        C976   1.405       .  A
C975        O979   1.372       .  S
C976        H980   1.084       .  S
O977        H982   0.991       .  S
O979        H983   0.992       .  S
C985        C986   1.407       .  A
C985        C990   1.409       .  A
C985        H995   1.083       .  S
C986        C991   1.488       .  S
C986        C987   1.406       .  A
C987        C988   1.398       .  A
C987        O992   1.372       .  S
C988        C989   1.406       .  A
C988        H993   1.084       .  S
C989        C990   1.412       .  A
C990        O994   1.372       .  S
C991        C996   1.410       .  A
C991       C1000   1.399       .  A
O992       H1008   0.992       .  S
O994       H1005   0.991       .  S
C996        C997   1.404       .  A
C996       O1001   1.371       .  S
C997        C998   1.406       .  A
C997       H1002   1.083       .  S
C998        C999   1.421       .  A
C999       C1000   1.404       .  A
C999       O1003   1.372       .  S
C1000      H1004   1.084       .  S
O1001      H1006   0.991       .  S
O1003      H1007   0.993       .  S
C1009      C1010   1.408       .  A
C1009      C1014   1.404       .  A
C1009      H1019   1.083       .  S
C1010      C1015   1.496       .  S
C1010      C1011   1.411       .  A
C1011      C1012   1.399   1_655  A
C1011      O1016   1.372       .  S
C1012      C1013   1.406       .  A
C1012      H1017   1.084       .  S
C1013      C1014   1.411   1_455  A
C1014      O1018   1.372       .  S
C1015      C1020   1.410       .  A
C1015      C1024   1.407       .  A
O1016      H1032   0.992   1_655  S
O1018      H1029   0.992       .  S
C1020      C1021   1.404       .  A
C1020      O1025   1.373       .  S
C1021      C1022   1.408       .  A
C1021      H1026   1.083       .  S
C1022      C1023   1.412       .  A
C1023      C1024   1.402       .  A
C1023      O1027   1.371       .  S
C1024      H1028   1.083       .  S
O1025      H1030   0.990       .  S
O1027      H1031   0.993       .  S
C1033      C1034   1.405       .  A
C1033      C1038   1.403       .  A
C1033      H1043   1.083       .  S
C1034      C1039   1.497       .  S
C1034      C1035   1.411       .  A
C1035      C1036   1.406   1_655  A
C1035      O1040   1.372       .  S
C1036      C1037   1.411       .  A
C1036      H1041   1.083       .  S
C1037      C1038   1.414   1_455  A
C1038      O1042   1.371       .  S
C1039      C1044   1.410   1_545  A
C1039      C1048   1.407       .  A
O1040      H1056   0.991   1_545  S
O1042      H1053   0.992       .  S
C1044      C1045   1.402       .  A
C1044      O1049   1.372   1_565  S
C1045      C1046   1.408       .  A
C1045      H1050   1.083       .  S
C1046      C1047   1.413       .  A
C1047      C1048   1.407   1_565  A
C1047      O1051   1.371       .  S
C1048      H1052   1.083       .  S
O1049      H1054   0.993       .  S
O1051      H1055   0.992       .  S
C1057      C1058   1.407       .  A
C1057      C1062   1.402       .  A
C1057      H1067   1.083       .  S
C1058      C1063   1.496       .  S
C1058      C1059   1.414       .  A
C1059      C1060   1.406       .  A
C1059      O1064   1.373       .  S
C1060      C1061   1.402       .  A
C1060      H1065   1.084       .  S
C1061      C1062   1.406       .  A
C1062      O1066   1.372       .  S
C1063      C1068   1.407       .  A
C1063      C1072   1.409       .  A
O1064      H1080   0.992       .  S
O1066      H1077   0.991       .  S
C1068      C1069   1.403       .  A
C1068      O1073   1.373       .  S
C1069      C1070   1.410       .  A
C1069      H1074   1.082       .  S
C1070      C1071   1.412       .  A
C1071      C1072   1.407       .  A
C1071      O1075   1.371       .  S
C1072      H1076   1.084       .  S
O1073      H1078   0.993       .  S
O1075      H1079   0.992       .  S
C1081      C1082   1.405       .  A
C1081      C1086   1.399       .  A
C1081      H1091   1.084       .  S
C1082      C1087   1.496       .  S
C1082      C1083   1.414       .  A
C1083      C1084   1.408       .  A
C1083      O1088   1.372       .  S
C1084      C1085   1.404       .  A
C1084      H1089   1.084       .  S
C1085      C1086   1.412       .  A
C1086      O1090   1.372       .  S
C1087      C1092   1.410       .  A
C1087      C1096   1.409       .  A
O1088      H1104   0.993       .  S
O1090      H1101   0.992       .  S
C1092      C1093   1.403       .  A
C1092      O1097   1.371       .  S
C1093      C1094   1.407       .  A
C1093      H1098   1.084       .  S
C1094      C1095   1.408       .  A
C1095      C1096   1.404       .  A
C1095      O1099   1.371       .  S
C1096      H1100   1.083       .  S
O1097      H1102   0.992       .  S
O1099      H1103   0.992       .  S
C1105      C1106   1.401       .  A
C1105      C1110   1.392       .  A
C1105      H1115   1.084       .  S
C1106      C1111   1.494       .  S
C1106      C1107   1.413       .  A
C1107      C1108   1.413       .  A
C1107      O1112   1.372       .  S
C1108      C1109   1.407       .  A
C1108      H1113   1.083       .  S
C1109      C1110   1.415       .  A
C1110      O1114   1.373       .  S
C1111      C1116   1.413       .  A
C1111      C1120   1.407       .  A
O1112      H1128   0.993       .  S
O1114      H1125   0.992       .  S
C1116      C1117   1.405       .  A
C1116      O1121   1.371       .  S
C1117      C1118   1.404       .  A
C1117      H1122   1.084       .  S
C1118      C1119   1.408       .  A
C1119      C1120   1.397       .  A
C1119      O1123   1.372       .  S
C1120      H1124   1.084       .  S
O1121      H1126   0.992       .  S
O1123      H1127   0.991       .  S
C1129      C1130   1.406       .  A
C1129      C1134   1.407       .  A
C1129      H1139   1.084       .  S
C1130      C1135   1.500       .  S
C1130      C1131   1.409       .  A
C1131      C1132   1.409       .  A
C1131      O1136   1.372       .  S
C1132      C1133   1.409       .  A
C1132      H1137   1.080       .  S
C1133      C1134   1.415       .  A
C1134      O1138   1.371       .  S
C1135      C1140   1.412       .  A
C1135      C1144   1.404       .  A
O1136      H1152   0.992       .  S
O1138      H1149   0.992       .  S
C1140      C1141   1.410       .  A
C1140      O1145   1.371       .  S
C1141      C1142   1.409       .  A
C1141      H1146   1.083       .  S
C1142      C1143   1.417       .  A
C1143      C1144   1.405       .  A
C1143      O1147   1.372       .  S
C1144      H1148   1.084       .  S
O1145      H1150   0.991       .  S
O1147      H1151   0.991       .  S
C1153      C1154   1.403       .  A
C1153      C1158   1.403       .  A
C1153      H1163   1.084       .  S
C1154      C1159   1.492       .  S
C1154      C1155   1.409       .  A
C1155      C1156   1.408       .  A
C1155      O1160   1.371       .  S
C1156      C1157   1.410       .  A
C1156      H1161   1.083       .  S
C1157      C1158   1.416       .  A
C1158      O1162   1.371       .  S
C1159      C1164   1.409       .  A
C1159      C1168   1.404       .  A
O1160      H1176   0.991       .  S
O1162      H1173   0.993       .  S
C1164      C1165   1.405       .  A
C1164      O1169   1.372       .  S
C1165      C1166   1.408       .  A
C1165      H1170   1.083       .  S
C1166      C1167   1.416       .  A
C1167      C1168   1.406       .  A
C1167      O1171   1.371   1_655  S
C1168      H1172   1.083       .  S
O1169      H1174   0.991       .  S
O1171      H1175   0.991       .  S
C1177      C1178   1.403       .  A
C1177      C1182   1.399       .  A
C1177      H1187   1.083       .  S
C1178      C1183   1.490       .  S
C1178      C1179   1.414       .  A
C1179      C1180   1.403       .  A
C1179      O1184   1.371       .  S
C1180      C1181   1.401       .  A
C1180      H1185   1.084       .  S
C1181      C1182   1.410       .  A
C1182      O1186   1.372       .  S
C1183      C1188   1.413       .  A
C1183      C1192   1.401       .  A
O1184      H1200   0.992       .  S
O1186      H1197   0.993       .  S
C1188      C1189   1.404       .  A
C1188      O1193   1.372       .  S
C1189      C1190   1.404       .  A
C1189      H1194   1.084       .  S
C1190      C1191   1.413       .  A
C1191      C1192   1.400       .  A
C1191      O1195   1.372       .  S
C1192      H1196   1.083       .  S
O1193      H1198   0.992       .  S
O1195      H1199   0.992       .  S
C1201      C1202   1.407       .  A
C1201      C1206   1.409       .  A
C1201      H1211   1.083       .  S
C1202      C1207   1.489       .  S
C1202      C1203   1.408       .  A
C1203      C1204   1.397       .  A
C1203      O1208   1.372       .  S
C1204      C1205   1.407       .  A
C1204      H1209   1.084       .  S
C1205      C1206   1.410       .  A
C1206      O1210   1.370       .  S
C1207      C1212   1.410       .  A
C1207      C1216   1.401       .  A
O1208      H1224   0.993       .  S
O1210      H1221   0.990       .  S
C1212      C1213   1.405       .  A
C1212      O1217   1.371       .  S
C1213      C1214   1.406       .  A
C1213      H1218   1.083       .  S
C1214      C1215   1.417       .  A
C1215      C1216   1.398       .  A
C1215      O1219   1.372       .  S
C1216      H1220   1.084       .  S
O1217      H1222   0.991       .  S
O1219      H1223   0.992       .  S
C1225      C1226   1.408       .  A
C1225      C1230   1.405       .  A
C1225      H1235   1.083       .  S
C1226      C1231   1.504       .  S
C1226      C1227   1.413       .  A
C1227      C1228   1.407       .  A
C1227      O1232   1.371       .  S
C1228      C1229   1.407       .  A
C1228      H1233   1.083   1_556  S
C1229      C1230   1.414       .  A
C1230      O1234   1.372       .  S
C1231      C1236   1.414       .  A
C1231      C1240   1.408       .  A
O1232      H1248   0.992       .  S
O1234      H1245   0.991       .  S
C1236      C1237   1.407       .  A
C1236      O1241   1.372       .  S
C1237      C1238   1.404       .  A
C1237      H1242   1.084       .  S
C1238      C1239   1.410       .  A
C1239      C1240   1.407       .  A
C1239      O1243   1.372       .  S
C1240      H1244   1.083       .  S
O1241      H1246   0.992       .  S
O1243      H1247   0.991       .  S
C1249      C1250   1.404       .  A
C1249      C1254   1.404       .  A
C1249      H1259   1.084       .  S
C1250      C1255   1.492       .  S
C1250      C1251   1.411       .  A
C1251      C1252   1.401       .  A
C1251      O1256   1.371       .  S
C1252      C1253   1.403       .  A
C1252      H1257   1.083       .  S
C1253      C1254   1.416       .  A
C1254      O1258   1.372       .  S
C1255      C1260   1.412       .  A
C1255      C1264   1.404       .  A
O1256      H1272   0.991       .  S
O1258      H1269   0.991       .  S
C1260      C1261   1.407       .  A
C1260      O1265   1.372       .  S
C1261      C1262   1.405       .  A
C1261      H1266   1.083       .  S
C1262      C1263   1.409       .  A
C1263      C1264   1.399       .  A
C1263      O1267   1.372       .  S
C1264      H1268   1.084       .  S
O1265      H1270   0.992       .  S
O1267      H1271   0.992       .  S
C1273      C1274   1.409       .  A
C1273      C1278   1.405       .  A
C1273      H1283   1.083       .  S
C1274      C1279   1.500       .  S
C1274      C1275   1.412       .  A
C1275      C1276   1.404       .  A
C1275      O1280   1.371       .  S
C1276      C1277   1.404       .  A
C1276      H1281   1.084       .  S
C1277      C1278   1.408       .  A
C1278      O1282   1.372       .  S
C1279      C1284   1.407       .  A
C1279      C1288   1.411       .  A
O1280      H1296   0.990       .  S
O1282      H1293   0.991       .  S
C1284      C1285   1.401       .  A
C1284      O1289   1.372       .  S
C1285      C1286   1.411       .  A
C1285      H1290   1.083       .  S
C1286      C1287   1.413       .  A
C1287      C1288   1.411       .  A
C1287      O1291   1.371       .  S
C1288      H1292   1.083       .  S
O1289      H1294   0.991       .  S
O1291      H1295   0.992       .  S
C1297      C1298   1.405       .  A
C1297      C1302   1.408       .  A
C1297      H1307   1.083       .  S
C1298      C1303   1.494       .  S
C1298      C1299   1.410       .  A
C1299      C1300   1.401       .  A
C1299      O1304   1.372       .  S
C1300      C1301   1.408       .  A
C1300      H1305   1.083       .  S
C1301      C1302   1.414       .  A
C1302      O1306   1.372       .  S
C1303      C1308   1.412       .  A
C1303      C1312   1.402       .  A
O1304      H1320   0.993       .  S
O1306      H1317   0.992       .  S
C1308      C1309   1.410       .  A
C1308      O1313   1.372       .  S
C1309      C1310   1.408       .  A
C1309      H1314   1.083       .  S
C1310      C1311   1.415       .  A
C1311      C1312   1.400       .  A
C1311      O1315   1.372       .  S
C1312      H1316   1.084       .  S
O1313      H1318   0.990       .  S
O1315      H1319   0.993       .  S
C1321      C1322   1.404       .  A
C1321      C1326   1.401       .  A
C1321      H1331   1.084       .  S
C1322      C1327   1.497       .  S
C1322      C1323   1.413       .  A
C1323      C1324   1.411       .  A
C1323      O1328   1.372       .  S
C1324      C1325   1.407       .  A
C1324      H1329   1.083       .  S
C1325      C1326   1.414       .  A
C1326      O1330   1.372       .  S
C1327      C1332   1.412       .  A
C1327      C1336   1.403       .  A
O1328      H1344   0.992       .  S
O1330      H1341   0.992       .  S
C1332      C1333   1.409       .  A
C1332      O1337   1.371       .  S
C1333      C1334   1.410       .  A
C1333      H1338   1.083       .  S
C1334      C1335   1.416       .  A
C1335      C1336   1.401       .  A
C1335      O1339   1.372       .  S
C1336      H1340   1.084       .  S
O1337      H1342   0.992       .  S
O1339      H1343   0.992       .  S
C1345      C1346   1.404       .  A
C1345      C1350   1.406       .  A
C1345      H1355   1.084       .  S
C1346      C1351   1.498       .  S
C1346      C1347   1.412       .  A
C1347      C1348   1.409       .  A
C1347      O1352   1.371       .  S
C1348      C1349   1.406       .  A
C1348      H1353   1.083       .  S
C1349      C1350   1.415       .  A
C1350      O1354   1.372       .  S
C1351      C1356   1.409       .  A
C1351      C1360   1.409       .  A
O1352      H1368   0.992       .  S
O1354      H1365   0.991       .  S
C1356      C1357   1.403       .  A
C1356      O1361   1.372       .  S
C1357      C1358   1.406       .  A
C1357      H1362   1.084       .  S
C1358      C1359   1.412       .  A
C1359      C1360   1.412       .  A
C1359      O1363   1.371       .  S
C1360      H1364   1.083       .  S
O1361      H1366   0.992       .  S
O1363      H1367   0.991       .  S
C1369      C1370   1.409       .  A
C1369      C1374   1.413       .  A
C1369      H1379   1.083       .  S
C1370      C1375   1.506       .  S
C1370      C1371   1.412       .  A
C1371      C1372   1.405       .  A
C1371      O1376   1.372       .  S
C1372      C1373   1.409       .  A
C1372      H1377   1.083       .  S
C1373      C1374   1.416       .  A
C1374      O1378   1.371       .  S
C1375      C1380   1.414       .  A
C1375      C1384   1.409       .  A
O1376      H1392   0.992       .  S
O1378      H1389   0.992       .  S
C1380      C1381   1.411       .  A
C1380      O1385   1.371       .  S
C1381      C1382   1.405       .  A
C1381      H1386   1.084   1_554  S
C1382      C1383   1.407       .  A
C1383      C1384   1.406       .  A
C1383      O1387   1.372       .  S
C1384      H1388   1.083       .  S
O1385      H1390   0.991       .  S
O1387      H1391   0.992       .  S
C1393      C1394   1.402       .  A
C1393      C1398   1.398   1_554  A
C1393      H1403   1.083       .  S
C1394      C1399   1.490       .  S
C1394      C1395   1.412       .  A
C1395      C1396   1.404       .  A
C1395      O1400   1.372       .  S
C1396      C1397   1.406   1_554  A
C1396      H1401   1.083       .  S
C1397      C1398   1.414       .  A
C1398      O1402   1.372       .  S
C1399      C1404   1.412       .  A
C1399      C1408   1.403       .  A
O1400      H1416   0.991       .  S
O1402      H1413   0.992       .  S
C1404      C1405   1.403   1_655  A
C1404      O1409   1.373   1_655  S
C1405      C1406   1.403       .  A
C1405      H1410   1.083       .  S
C1406      C1407   1.414   1_455  A
C1407      C1408   1.400       .  A
C1407      O1411   1.372       .  S
C1408      H1412   1.083       .  S
O1409      H1414   0.992       .  S
O1411      H1415   0.992       .  S
C1417      C1418   1.404       .  A
C1417      C1422   1.398       .  A
C1417      H1427   1.083       .  S
C1418      C1423   1.487       .  S
C1418      C1419   1.412       .  A
C1419      C1420   1.402       .  A
C1419      O1424   1.372       .  S
C1420      C1421   1.403       .  A
C1420      H1425   1.084       .  S
C1421      C1422   1.408       .  A
C1422      O1426   1.372       .  S
C1423      C1428   1.412       .  A
C1423      C1432   1.402       .  A
O1424      H1440   0.992       .  S
O1426      H1437   0.992       .  S
C1428      C1429   1.402       .  A
C1428      O1433   1.373       .  S
C1429      C1430   1.404       .  A
C1429      H1434   1.084       .  S
C1430      C1431   1.414       .  A
C1431      C1432   1.400       .  A
C1431      O1435   1.372       .  S
C1432      H1436   1.083       .  S
O1433      H1438   0.992       .  S
O1435      H1439   0.992       .  S
C1441      C1442   1.410       .  A
C1441      C1446   1.412       .  A
C1441      H1451   1.083       .  S
C1442      C1447   1.508       .  S
C1442      C1443   1.414       .  A
C1443      C1444   1.406       .  A
C1443      O1448   1.372       .  S
C1444      C1445   1.406       .  A
C1444      H1449   1.084       .  S
C1445      C1446   1.411       .  A
C1446      O1450   1.371       .  S
C1447      C1452   1.416       .  A
C1447      C1456   1.404       .  A
O1448      H1464   0.991       .  S
O1450      H1461   0.991       .  S
C1452      C1453   1.416       .  A
C1452      O1457   1.371       .  S
C1453      C1454   1.407       .  A
C1453      H1458   1.083       .  S
C1454      C1455   1.416       .  A
C1455      C1456   1.403       .  A
C1455      O1459   1.373       .  S
C1456      H1460   1.083       .  S
O1457      H1462   0.992       .  S
O1459      H1463   0.992       .  S
C1465      C1466   1.402       .  A
C1465      C1470   1.404       .  A
C1465      H1475   1.084       .  S
C1466      C1471   1.493       .  S
C1466      C1467   1.412       .  A
C1467      C1468   1.409       .  A
C1467      O1472   1.372       .  S
C1468      C1469   1.404       .  A
C1468      H1473   1.083       .  S
C1469      C1470   1.414       .  A
C1470      O1474   1.372       .  S
C1471      C1476   1.409       .  A
C1471      C1480   1.404       .  A
O1472      H1488   0.992       .  S
O1474      H1485   0.992       .  S
C1476      C1477   1.405       .  A
C1476      O1481   1.371       .  S
C1477      C1478   1.407       .  A
C1477      H1482   1.083       .  S
C1478      C1479   1.417       .  A
C1479      C1480   1.404       .  A
C1479      O1483   1.372       .  S
C1480      H1484   1.084       .  S
O1481      H1486   0.992       .  S
O1483      H1487   0.993       .  S
C1489      C1490   1.408       .  A
C1489      C1494   1.406       .  A
C1489      H1499   1.083       .  S
C1490      C1495   1.502       .  S
C1490      C1491   1.410       .  A
C1491      C1492   1.405       .  A
C1491      O1496   1.371       .  S
C1492      C1493   1.410       .  A
C1492      H1497   1.083       .  S
C1493      C1494   1.413       .  A
C1494      O1498   1.371       .  S
C1495      C1500   1.409       .  A
C1495      C1504   1.410       .  A
O1496      H1512   0.991       .  S
O1498      H1509   0.992       .  S
C1500      C1501   1.403       .  A
C1500      O1505   1.372       .  S
C1501      C1502   1.410       .  A
C1501      H1506   1.083       .  S
C1502      C1503   1.415       .  A
C1503      C1504   1.411       .  A
C1503      O1507   1.371       .  S
C1504      H1508   1.083       .  S
O1505      H1510   0.992       .  S
O1507      H1511   0.992       .  S
C1513      C1514   1.406       .  A
C1513      C1518   1.408       .  A
C1513      H1523   1.083       .  S
C1514      C1519   1.476       .  S
C1514      C1515   1.403       .  A
C1515      C1516   1.393       .  A
C1515      O1520   1.372       .  S
C1516      C1517   1.404       .  A
C1516      H1521   1.085       .  S
C1517      C1518   1.408       .  A
C1518      O1522   1.371       .  S
C1519      C1524   1.407       .  A
C1519      C1528   1.398       .  A
O1520      H1536   0.992       .  S
O1522      H1533   0.991       .  S
C1524      C1525   1.398       .  A
C1524      O1529   1.372       .  S
C1525      C1526   1.405       .  A
C1525      H1530   1.083       .  S
C1526      C1527   1.419       .  A
C1527      C1528   1.402       .  A
C1527      O1531   1.372       .  S
C1528      H1532   1.084       .  S
O1529      H1534   0.991       .  S
O1531      H1535   0.991       .  S
C1537      C1538   1.403       .  A
C1537      C1542   1.403       .  A
C1537      H1547   1.084       .  S
C1538      C1543   1.481       .  S
C1538      C1539   1.404       .  A
C1539      C1540   1.401       .  A
C1539      O1544   1.372       .  S
C1540      C1541   1.411       .  A
C1540      H1545   1.083       .  S
C1541      C1542   1.414       .  A
C1542      O1546   1.371       .  S
C1543      C1548   1.405       .  A
C1543      C1552   1.404       .  A
O1544      H1560   0.993       .  S
O1546      H1557   0.993       .  S
C1548      C1549   1.400       .  A
C1548      O1553   1.372       .  S
C1549      C1550   1.407       .  A
C1549      H1554   1.084       .  S
C1550      C1551   1.409       .  A
C1551      C1552   1.404       .  A
C1551      O1555   1.372       .  S
C1552      H1556   1.083       .  S
O1553      H1558   0.991       .  S
O1555      H1559   0.990       .  S
C1561      C1562   1.407       .  A
C1561      C1566   1.408       .  A
C1561      H1571   1.083       .  S
C1562      C1567   1.492       .  S
C1562      C1563   1.409       .  A
C1563      C1564   1.398       .  A
C1563      O1568   1.372       .  S
C1564      C1565   1.409       .  A
C1564      H1569   1.083       .  S
C1565      C1566   1.414       .  A
C1566      O1570   1.371       .  S
C1567      C1572   1.413       .  A
C1567      C1576   1.401       .  A
O1568      H1584   0.991       .  S
O1570      H1581   0.992       .  S
C1572      C1573   1.411       .  A
C1572      O1577   1.372       .  S
C1573      C1574   1.405   1_545  A
C1573      H1578   1.083       .  S
C1574      C1575   1.411   1_565  A
C1575      C1576   1.395       .  A
C1575      O1579   1.373   1_545  S
C1576      H1580   1.084       .  S
O1577      H1582   0.991       .  S
O1579      H1583   0.992   1_565  S
C1585      C1586   1.404       .  A
C1585      C1590   1.402       .  A
C1585      H1595   1.084       .  S
C1586      C1591   1.494       .  S
C1586      C1587   1.411       .  A
C1587      C1588   1.407       .  A
C1587      O1592   1.372       .  S
C1588      C1589   1.408       .  A
C1588      H1593   1.083   1_455  S
C1589      C1590   1.415       .  A
C1590      O1594   1.372       .  S
C1591      C1596   1.411       .  A
C1591      C1600   1.404       .  A
O1592      H1608   0.992       .  S
O1594      H1605   0.992       .  S
C1596      C1597   1.404       .  A
C1596      O1601   1.372       .  S
C1597      C1598   1.409       .  A
C1597      H1602   1.083       .  S
C1598      C1599   1.416       .  A
C1599      C1600   1.406       .  A
C1599      O1603   1.371       .  S
C1600      H1604   1.083       .  S
O1601      H1606   0.992       .  S
O1603      H1607   0.991       .  S
C1609      C1610   1.409       .  A
C1609      C1614   1.413       .  A
C1609      H1619   1.083       .  S
C1610      C1615   1.496       .  S
C1610      C1611   1.407       .  A
C1611      C1612   1.397       .  A
C1611      O1616   1.372       .  S
C1612      C1613   1.410       .  A
C1612      H1617   1.083       .  S
C1613      C1614   1.414       .  A
C1614      O1618   1.371       .  S
C1615      C1620   1.409       .  A
C1615      C1624   1.408       .  A
O1616      H1632   0.992       .  S
O1618      H1629   0.991       .  S
C1620      C1621   1.406       .  A
C1620      O1625   1.371       .  S
C1621      C1622   1.408       .  A
C1621      H1626   1.084       .  S
C1622      C1623   1.409       .  A
C1623      C1624   1.405       .  A
C1623      O1627   1.372   1_565  S
C1624      H1628   1.084       .  S
O1625      H1630   0.991       .  S
O1627      H1631   0.991       .  S
C1633      C1634   1.408       .  A
C1633      C1638   1.410       .  A
C1633      H1643   1.083       .  S
C1634      C1639   1.498       .  S
C1634      C1635   1.409       .  A
C1635      C1636   1.402       .  A
C1635      O1640   1.372       .  S
C1636      C1637   1.411       .  A
C1636      H1641   1.083       .  S
C1637      C1638   1.414       .  A
C1638      O1642   1.371       .  S
C1639      C1644   1.414       .  A
C1639      C1648   1.403       .  A
O1640      H1656   0.992       .  S
O1642      H1653   0.990       .  S
C1644      C1645   1.411       .  A
C1644      O1649   1.371       .  S
C1645      C1646   1.405       .  A
C1645      H1650   1.083       .  S
C1646      C1647   1.413       .  A
C1647      C1648   1.399       .  A
C1647      O1651   1.373       .  S
C1648      H1652   1.084       .  S
O1649      H1654   0.992       .  S
O1651      H1655   0.993       .  S
C1657      C1658   1.409       .  A
C1657      C1662   1.409       .  A
C1657      H1667   1.083       .  S
C1658      C1663   1.498       .  S
C1658      C1659   1.413       .  A
C1659      C1660   1.399       .  A
C1659      O1664   1.372       .  S
C1660      C1661   1.402       .  A
C1660      H1665   1.084       .  S
C1661      C1662   1.410       .  A
C1662      O1666   1.372       .  S
C1663      C1668   1.412       .  A
C1663      C1672   1.405       .  A
O1664      H1680   0.991       .  S
O1666      H1677   0.992       .  S
C1668      C1669   1.410       .  A
C1668      O1673   1.371       .  S
C1669      C1670   1.407       .  A
C1669      H1674   1.083       .  S
C1670      C1671   1.411       .  A
C1671      C1672   1.398       .  A
C1671      O1675   1.372       .  S
C1672      H1676   1.084       .  S
O1673      H1678   0.992       .  S
O1675      H1679   0.992       .  S
C1681      C1682   1.404       .  A
C1681      C1686   1.402       .  A
C1681      H1691   1.084       .  S
C1682      C1687   1.485       .  S
C1682      C1683   1.409       .  A
C1683      C1684   1.404       .  A
C1683      O1688   1.372       .  S
C1684      C1685   1.405       .  A
C1684      H1689   1.084       .  S
C1685      C1686   1.407       .  A
C1686      O1690   1.372       .  S
C1687      C1692   1.408       .  A
C1687      C1696   1.400       .  A
O1688      H1704   0.993       .  S
O1690      H1701   0.990       .  S
C1692      C1693   1.402       .  A
C1692      O1697   1.371       .  S
C1693      C1694   1.405       .  A
C1693      H1698   1.083       .  S
C1694      C1695   1.420       .  A
C1695      C1696   1.403       .  A
C1695      O1699   1.372       .  S
C1696      H1700   1.084       .  S
O1697      H1702   0.992       .  S
O1699      H1703   0.990       .  S
C1705      C1706   1.407       .  A
C1705      C1710   1.400       .  A
C1705      H1715   1.084       .  S
C1706      C1711   1.494       .  S
C1706      C1707   1.410       .  A
C1707      C1708   1.409       .  A
C1707      O1712   1.372       .  S
C1708      C1709   1.408       .  A
C1708      H1713   1.084       .  S
C1709      C1710   1.409       .  A
C1710      O1714   1.372       .  S
C1711      C1716   1.414       .  A
C1711      C1720   1.404       .  A
O1712      H1728   0.991       .  S
O1714      H1725   0.992       .  S
C1716      C1717   1.410       .  A
C1716      O1721   1.371       .  S
C1717      C1718   1.404       .  A
C1717      H1722   1.084       .  S
C1718      C1719   1.408       .  A
C1719      C1720   1.396       .  A
C1719      O1723   1.372       .  S
C1720      H1724   1.084       .  S
O1721      H1726   0.992       .  S
O1723      H1727   0.991       .  S
C1729      C1730   1.408       .  A
C1729      C1734   1.407       .  A
C1729      H1739   1.083       .  S
C1730      C1735   1.500       .  S
C1730      C1731   1.409       .  A
C1731      C1732   1.406       .  A
C1731      O1736   1.371       .  S
C1732      C1733   1.408       .  A
C1732      H1737   1.083       .  S
C1733      C1734   1.413       .  A
C1734      O1738   1.372       .  S
C1735      C1740   1.408       .  A
C1735      C1744   1.410       .  A
O1736      H1752   0.992       .  S
O1738      H1749   0.992       .  S
C1740      C1741   1.402       .  A
C1740      O1745   1.373       .  S
C1741      C1742   1.409       .  A
C1741      H1746   1.084       .  S
C1742      C1743   1.411       .  A
C1743      C1744   1.412       .  A
C1743      O1747   1.371       .  S
C1744      H1748   1.083       .  S
O1745      H1750   0.991       .  S
O1747      H1751   0.991       .  S
C1753      C1754   1.407       .  A
C1753      C1758   1.407       .  A
C1753      H1763   1.083       .  S
C1754      C1759   1.485       .  S
C1754      C1755   1.407       .  A
C1755      C1756   1.396       .  A
C1755      O1760   1.374       .  S
C1756      C1757   1.406       .  A
C1756      H1761   1.084       .  S
C1757      C1758   1.408       .  A
C1758      O1762   1.371       .  S
C1759      C1764   1.407       .  A
C1759      C1768   1.404       .  A
O1760      H1776   0.992       .  S
O1762      H1773   0.992       .  S
C1764      C1765   1.397       .  A
C1764      O1769   1.372       .  S
C1765      C1766   1.408       .  A
C1765      H1770   1.083       .  S
C1766      C1767   1.414       .  A
C1767      C1768   1.404       .  A
C1767      O1771   1.371       .  S
C1768      H1772   1.084       .  S
O1769      H1774   0.991       .  S
O1771      H1775   0.992       .  S
C1777      C1778   1.405       .  A
C1777      C1782   1.404   1_554  A
C1777      H1787   1.084       .  S
C1778      C1783   1.505       .  S
C1778      C1779   1.414       .  A
C1779      C1780   1.412       .  A
C1779      O1784   1.373       .  S
C1780      C1781   1.408   1_554  A
C1780      H1785   1.083       .  S
C1781      C1782   1.417       .  A
C1782      O1786   1.372       .  S
C1783      C1788   1.412       .  A
C1783      C1792   1.408       .  A
O1784      H1800   0.992       .  S
O1786      H1797   0.992       .  S
C1788      C1789   1.406       .  A
C1788      O1793   1.371       .  S
C1789      C1790   1.410       .  A
C1789      H1794   1.083       .  S
C1790      C1791   1.415       .  A
C1791      C1792   1.408       .  A
C1791      O1795   1.371       .  S
C1792      H1796   1.083       .  S
O1793      H1798   0.991       .  S
O1795      H1799   0.992       .  S
C1801      C1802   1.401       .  A
C1801      C1806   1.396       .  A
C1801      H1811   1.083       .  S
C1802      C1807   1.493       .  S
C1802      C1803   1.415       .  A
C1803      C1804   1.410       .  A
C1803      O1808   1.372       .  S
C1804      C1805   1.407       .  A
C1804      H1809   1.083   1_655  S
C1805      C1806   1.412       .  A
C1806      O1810   1.372       .  S
C1807      C1812   1.412       .  A
C1807      C1816   1.403       .  A
O1808      H1824   0.992       .  S
O1810      H1821   0.993       .  S
C1812      C1813   1.402       .  A
C1812      O1817   1.372       .  S
C1813      C1814   1.406       .  A
C1813      H1818   1.083       .  S
C1814      C1815   1.417       .  A
C1815      C1816   1.404       .  A
C1815      O1819   1.372       .  S
C1816      H1820   1.083       .  S
O1817      H1822   0.991       .  S
O1819      H1823   0.992       .  S
C1825      C1826   1.401       .  A
C1825      C1830   1.398       .  A
C1825      H1835   1.083       .  S
C1826      C1831   1.486       .  S
C1826      C1827   1.411       .  A
C1827      C1828   1.401       .  A
C1827      O1832   1.372       .  S
C1828      C1829   1.405       .  A
C1828      H1833   1.084       .  S
C1829      C1830   1.414       .  A
C1830      O1834   1.372       .  S
C1831      C1836   1.411       .  A
C1831      C1840   1.405       .  A
O1832      H1848   0.992       .  S
O1834      H1845   0.991       .  S
C1836      C1837   1.402       .  A
C1836      O1841   1.372       .  S
C1837      C1838   1.402       .  A
C1837      H1842   1.084       .  S
C1838      C1839   1.408       .  A
C1839      C1840   1.399       .  A
C1839      O1843   1.372       .  S
C1840      H1844   1.084       .  S
O1841      H1846   0.992       .  S
O1843      H1847   0.990       .  S
C1849      C1850   1.412       .  A
C1849      C1854   1.407       .  A
C1849      H1859   1.082       .  S
C1850      C1855   1.499       .  S
C1850      C1851   1.413       .  A
C1851      C1852   1.395       .  A
C1851      O1856   1.372       .  S
C1852      C1853   1.402       .  A
C1852      H1857   1.085       .  S
C1853      C1854   1.407       .  A
C1854      O1858   1.372       .  S
C1855      C1860   1.413       .  A
C1855      C1864   1.406       .  A
O1856      H1872   0.992       .  S
O1858      H1869   0.990       .  S
C1860      C1861   1.405       .  A
C1860      O1865   1.372       .  S
C1861      C1862   1.406       .  A
C1861      H1866   1.083       .  S
C1862      C1863   1.413       .  A
C1863      C1864   1.401       .  A
C1863      O1867   1.371       .  S
C1864      H1868   1.083       .  S
O1865      H1870   0.993       .  S
O1867      H1871   0.995       .  S
C1873      C1874   1.403       .  A
C1873      C1878   1.403       .  A
C1873      H1883   1.084       .  S
C1874      C1879   1.491       .  S
C1874      C1875   1.410       .  A
C1875      C1876   1.410       .  A
C1875      O1880   1.371       .  S
C1876      C1877   1.407       .  A
C1876      H1881   1.084   1_554  S
C1877      C1878   1.409       .  A
C1878      O1882   1.372       .  S
C1879      C1884   1.410       .  A
C1879      C1888   1.403       .  A
O1880      H1896   0.991       .  S
O1882      H1893   0.992       .  S
C1884      C1885   1.410       .  A
C1884      O1889   1.371       .  S
C1885      C1886   1.408       .  A
C1885      H1890   1.084       .  S
C1886      C1887   1.412       .  A
C1887      C1888   1.402       .  A
C1887      O1891   1.372       .  S
C1888      H1892   1.084       .  S
O1889      H1894   0.992       .  S
O1891      H1895   0.992       .  S
C1897      C1898   1.406       .  A
C1897      C1902   1.404       .  A
C1897      H1907   1.083       .  S
C1898      C1903   1.506       .  S
C1898      C1899   1.414       .  A
C1899      C1900   1.411       .  A
C1899      O1904   1.371       .  S
C1900      C1901   1.409       .  A
C1900      H1905   1.083       .  S
C1901      C1902   1.415       .  A
C1902      O1906   1.372       .  S
C1903      C1908   1.413       .  A
C1903      C1912   1.408       .  A
O1904      H1920   0.992       .  S
O1906      H1917   0.991       .  S
C1908      C1909   1.407       .  A
C1908      O1913   1.373       .  S
C1909      C1910   1.409       .  A
C1909      H1914   1.083       .  S
C1910      C1911   1.416       .  A
C1911      C1912   1.410       .  A
C1911      O1915   1.371       .  S
C1912      H1916   1.083       .  S
O1913      H1918   0.992       .  S
O1915      H1919   0.991       .  S
C1921      C1922   1.410       .  A
C1921      C1926   1.411       .  A
C1921      H1931   1.083       .  S
C1922      C1927   1.506       .  S
C1922      C1923   1.412       .  A
C1923      C1924   1.402       .  A
C1923      O1928   1.372       .  S
C1924      C1925   1.410       .  A
C1924      H1929   1.083       .  S
C1925      C1926   1.413       .  A
C1926      O1930   1.371       .  S
C1927      C1932   1.414       .  A
C1927      C1936   1.405       .  A
O1928      H1944   0.992       .  S
O1930      H1941   0.992       .  S
C1932      C1933   1.412       .  A
C1932      O1937   1.371       .  S
C1933      C1934   1.409       .  A
C1933      H1938   1.083       .  S
C1934      C1935   1.417       .  A
C1935      C1936   1.403       .  A
C1935      O1939   1.372       .  S
C1936      H1940   1.083       .  S
O1937      H1942   0.991       .  S
O1939      H1943   0.992       .  S
C1945      C1946   1.401       .  A
C1945      C1950   1.403       .  A
C1945      H1955   1.084       .  S
C1946      C1951   1.498       .  S
C1946      C1947   1.413       .  A
C1947      C1948   1.410       .  A
C1947      O1952   1.371       .  S
C1948      C1949   1.408       .  A
C1948      H1953   1.083       .  S
C1949      C1950   1.420       .  A
C1950      O1954   1.372       .  S
C1951      C1956   1.412       .  A
C1951      C1960   1.403       .  A
O1952      H1968   0.991       .  S
O1954      H1965   0.992       .  S
C1956      C1957   1.408       .  A
C1956      O1961   1.372       .  S
C1957      C1958   1.409       .  A
C1957      H1962   1.083       .  S
C1958      C1959   1.418       .  A
C1959      C1960   1.405       .  A
C1959      O1963   1.371       .  S
C1960      H1964   1.083       .  S
O1961      H1966   0.990       .  S
O1963      H1967   0.992       .  S
C1969      C1970   1.408       .  A
C1969      C1974   1.407       .  A
C1969      H1979   1.083       .  S
C1970      C1975   1.502       .  S
C1970      C1971   1.412       .  A
C1971      C1972   1.405       .  A
C1971      O1976   1.372       .  S
C1972      C1973   1.409       .  A
C1972      H1977   1.083       .  S
C1973      C1974   1.413       .  A
C1974      O1978   1.371       .  S
C1975      C1980   1.412       .  A
C1975      C1984   1.408       .  A
O1976      H1992   0.992       .  S
O1978      H1989   0.992       .  S
C1980      C1981   1.404       .  A
C1980      O1985   1.371       .  S
C1981      C1982   1.407       .  A
C1981      H1986   1.084       .  S
C1982      C1983   1.413       .  A
C1983      C1984   1.408       .  A
C1983      O1987   1.372       .  S
C1984      H1988   1.083       .  S
O1985      H1990   0.992       .  S
O1987      H1991   0.992       .  S
C1993      C1994   1.400       .  A
C1993      C1998   1.393       .  A
C1993      H2003   1.084       .  S
C1994      C1999   1.490       .  S
C1994      C1995   1.412       .  A
C1995      C1996   1.412       .  A
C1995      O2000   1.372       .  S
C1996      C1997   1.408   1_545  A
C1996      H2001   1.083       .  S
C1997      C1998   1.415   1_565  A
C1998      O2002   1.372   1_545  S
C1999      C2004   1.412       .  A
C1999      C2008   1.404       .  A
O2000      H2016   0.993       .  S
O2002      H2013   0.991   1_565  S
C2004      C2005   1.408       .  A
C2004      O2009   1.371       .  S
C2005      C2006   1.406       .  A
C2005      H2010   1.083       .  S
C2006      C2007   1.408       .  A
C2007      C2008   1.398       .  A
C2007      O2011   1.371       .  S
C2008      H2012   1.084       .  S
O2009      H2014   0.992       .  S
O2011      H2015   0.993       .  S
C2017      C2018   1.409       .  A
C2017      C2022   1.409       .  A
C2017      H2027   1.083       .  S
C2018      C2023   1.501       .  S
C2018      C2019   1.410       .  A
C2019      C2020   1.402   1_545  A
C2019      O2024   1.372       .  S
C2020      C2021   1.409       .  A
C2020      H2025   1.083       .  S
C2021      C2022   1.414   1_565  A
C2022      O2026   1.371       .  S
C2023      C2028   1.411       .  A
C2023      C2032   1.409       .  A
O2024      H2040   0.992       .  S
O2026      H2037   0.991   1_545  S
C2028      C2029   1.405       .  A
C2028      O2033   1.372       .  S
C2029      C2030   1.407   1_556  A
C2029      H2034   1.084       .  S
C2030      C2031   1.411       .  A
C2031      C2032   1.407   1_554  A
C2031      O2035   1.372       .  S
C2032      H2036   1.083       .  S
O2033      H2038   0.991       .  S
O2035      H2039   0.992       .  S
C2041      C2042   1.407       .  A
C2041      C2046   1.405   1_545  A
C2041      H2051   1.083       .  S
C2042      C2047   1.489       .  S
C2042      C2043   1.405       .  A
C2043      C2044   1.398   1_545  A
C2043      O2048   1.371       .  S
C2044      C2045   1.409       .  A
C2044      H2049   1.083       .  S
C2045      C2046   1.413       .  A
C2046      O2050   1.372       .  S
C2047      C2052   1.407       .  A
C2047      C2056   1.409       .  A
O2048      H2064   0.992       .  S
O2050      H2061   0.992   1_565  S
C2052      C2053   1.399       .  A
C2052      O2057   1.373       .  S
C2053      C2054   1.405       .  A
C2053      H2058   1.084       .  S
C2054      C2055   1.406       .  A
C2055      C2056   1.407       .  A
C2055      O2059   1.371       .  S
C2056      H2060   1.083       .  S
O2057      H2062   0.991       .  S
O2059      H2063   0.991       .  S
C2065      C2066   1.404       .  A
C2065      C2070   1.401       .  A
C2065      H2075   1.083       .  S
C2066      C2071   1.488       .  S
C2066      C2067   1.410       .  A
C2067      C2068   1.399       .  A
C2067      O2072   1.372       .  S
C2068      C2069   1.405       .  A
C2068      H2073   1.083       .  S
C2069      C2070   1.414       .  A
C2070      O2074   1.372       .  S
C2071      C2076   1.411       .  A
C2071      C2080   1.406       .  A
O2072      H2088   0.992       .  S
O2074      H2085   0.992       .  S
C2076      C2077   1.399       .  A
C2076      O2081   1.372       .  S
C2077      C2078   1.401       .  A
C2077      H2082   1.083       .  S
C2078      C2079   1.408       .  A
C2079      C2080   1.401       .  A
C2079      O2083   1.372       .  S
C2080      H2084   1.083       .  S
O2081      H2086   0.992       .  S
O2083      H2087   0.994       .  S
C2089      C2090   1.407       .  A
C2089      C2094   1.409       .  A
C2089      H2099   1.083       .  S
C2090      C2095   1.494       .  S
C2090      C2091   1.410       .  A
C2091      C2092   1.399       .  A
C2091      O2096   1.373       .  S
C2092      C2093   1.404       .  A
C2092      H2097   1.083       .  S
C2093      C2094   1.415       .  A
C2094      O2098   1.372       .  S
C2095      C2100   1.411       .  A
C2095      C2104   1.407       .  A
O2096      H2112   0.992       .  S
O2098      H2109   0.992       .  S
C2100      C2101   1.400       .  A
C2100      O2105   1.371       .  S
C2101      C2102   1.402       .  A
C2101      H2106   1.084       .  S
C2102      C2103   1.411       .  A
C2103      C2104   1.408       .  A
C2103      O2107   1.371       .  S
C2104      H2108   1.083       .  S
O2105      H2110   0.991       .  S
O2107      H2111   0.991       .  S
C2113      C2114   1.411       .  A
C2113      C2118   1.415       .  A
C2113      H2123   1.083       .  S
C2114      C2119   1.507       .  S
C2114      C2115   1.412       .  A
C2115      C2116   1.401       .  A
C2115      O2120   1.372       .  S
C2116      C2117   1.407       .  A
C2116      H2121   1.084       .  S
C2117      C2118   1.412       .  A
C2118      O2122   1.371       .  S
C2119      C2124   1.414       .  A
C2119      C2128   1.408       .  A
O2120      H2136   0.991       .  S
O2122      H2133   0.992       .  S
C2124      C2125   1.413       .  A
C2124      O2129   1.371       .  S
C2125      C2126   1.407       .  A
C2125      H2130   1.084       .  S
C2126      C2127   1.412       .  A
C2127      C2128   1.403       .  A
C2127      O2131   1.372       .  S
C2128      H2132   1.083       .  S
O2129      H2134   0.992       .  S
O2131      H2135   0.992       .  S
C2137      C2138   1.408       .  A
C2137      C2142   1.410       .  A
C2137      H2147   1.083       .  S
C2138      C2143   1.504       .  S
C2138      C2139   1.411       .  A
C2139      C2140   1.408       .  A
C2139      O2144   1.372       .  S
C2140      C2141   1.409       .  A
C2140      H2145   1.083   1_565  S
C2141      C2142   1.415       .  A
C2142      O2146   1.371       .  S
C2143      C2148   1.413       .  A
C2143      C2152   1.404       .  A
O2144      H2160   0.992       .  S
O2146      H2157   0.992       .  S
C2148      C2149   1.410       .  A
C2148      O2153   1.371       .  S
C2149      C2150   1.410       .  A
C2149      H2154   1.083       .  S
C2150      C2151   1.418       .  A
C2151      C2152   1.407       .  A
C2151      O2155   1.371       .  S
C2152      H2156   1.084       .  S
O2153      H2158   0.992       .  S
O2155      H2159   0.992       .  S
C2161      C2162   1.404       .  A
C2161      C2166   1.402       .  A
C2161      H2171   1.083       .  S
C2162      C2167   1.504       .  S
C2162      C2163   1.416       .  A
C2163      C2164   1.409       .  A
C2163      O2168   1.372       .  S
C2164      C2165   1.408       .  A
C2164      H2169   1.083       .  S
C2165      C2166   1.416       .  A
C2166      O2170   1.372       .  S
C2167      C2172   1.415   1_455  A
C2167      C2176   1.405       .  A
O2168      H2184   0.991       .  S
O2170      H2181   0.992       .  S
C2172      C2173   1.408       .  A
C2172      O2177   1.372       .  S
C2173      C2174   1.405       .  A
C2173      H2178   1.083       .  S
C2174      C2175   1.416   1_655  A
C2175      C2176   1.404       .  A
C2175      O2179   1.372       .  S
C2176      H2180   1.083       .  S
O2177      H2182   0.992       .  S
O2179      H2183   0.992       .  S
C2185      C2186   1.407       .  A
C2185      C2190   1.409       .  A
C2185      H2195   1.083       .  S
C2186      C2191   1.495       .  S
C2186      C2187   1.409       .  A
C2187      C2188   1.402       .  A
C2187      O2192   1.372       .  S
C2188      C2189   1.407       .  A
C2188      H2193   1.083       .  S
C2189      C2190   1.414       .  A
C2190      O2194   1.371       .  S
C2191      C2196   1.414       .  A
C2191      C2200   1.403       .  A
O2192      H2208   0.991       .  S
O2194      H2205   0.992       .  S
C2196      C2197   1.412       .  A
C2196      O2201   1.371       .  S
C2197      C2198   1.405       .  A
C2197      H2202   1.084       .  S
C2198      C2199   1.408       .  A
C2199      C2200   1.397       .  A
C2199      O2203   1.373       .  S
C2200      H2204   1.083       .  S
O2201      H2206   0.991       .  S
O2203      H2207   0.992       .  S
C2209      C2210   1.405       .  A
C2209      C2214   1.405       .  A
C2209      H2219   1.083       .  S
C2210      C2215   1.488       .  S
C2210      C2211   1.409       .  A
C2211      C2212   1.401       .  A
C2211      O2216   1.372       .  S
C2212      C2213   1.404       .  A
C2212      H2217   1.084       .  S
C2213      C2214   1.408       .  A
C2214      O2218   1.371       .  S
C2215      C2220   1.410       .  A
C2215      C2224   1.399       .  A
O2216      H2232   0.993       .  S
O2218      H2229   0.991       .  S
C2220      C2221   1.407       .  A
C2220      O2225   1.371       .  S
C2221      C2222   1.408       .  A
C2221      H2226   1.083       .  S
C2222      C2223   1.420       .  A
C2223      C2224   1.401       .  A
C2223      O2227   1.372       .  S
C2224      H2228   1.084       .  S
O2225      H2230   0.992       .  S
O2227      H2231   0.993       .  S
C2233      C2234   1.405       .  A
C2233      C2238   1.406       .  A
C2233      H2243   1.084       .  S
C2234      C2239   1.509       .  S
C2234      C2235   1.413       .  A
C2235      C2236   1.417       .  A
C2235      O2240   1.372       .  S
C2236      C2237   1.412       .  A
C2236      H2241   1.083       .  S
C2237      C2238   1.417       .  A
C2238      O2242   1.371       .  S
C2239      C2244   1.415       .  A
C2239      C2248   1.406       .  A
O2240      H2256   0.992       .  S
O2242      H2253   0.992       .  S
C2244      C2245   1.414       .  A
C2244      O2249   1.371       .  S
C2245      C2246   1.411       .  A
C2245      H2250   1.083   1_455  S
C2246      C2247   1.415       .  A
C2247      C2248   1.406       .  A
C2247      O2251   1.371       .  S
C2248      H2252   1.084       .  S
O2249      H2254   0.991       .  S
O2251      H2255   0.992       .  S
