geometry optimzed in LAMMPS
_audit_creation_date              2020-12-01 
_audit_creation_method            'lammps2cif' 
_symmetry_space_group_name_H-M    'P1' 
_symmetry_Int_Tables_number       1 
_symmetry_cell_setting            triclinic 
loop_ 
_symmetry_equiv_pos_as_xyz 
  x,y,z 
_cell_length_a                    45.23984659 
_cell_length_b                    45.24563733103278 
_cell_length_c                    35.67276121000861 
_cell_angle_alpha                 90.00001585978812 
_cell_angle_beta                  89.99996047266637 
_cell_angle_gamma                 120.31262402031102 
loop_ 
_atom_site_label 
_atom_site_type_symbol 
_atom_site_fract_x 
_atom_site_fract_y 
_atom_site_fract_z 
_atom_site_charge 
Fe1        Fe  0.53208273  0.61155524  0.25001069     1.65800
Fe2        Fe  0.50047714  0.66632932  0.24999558     1.73200
Fe3        Fe  0.58757063  0.69850719  0.25000276     1.54400
O4          O  0.60387725  0.67824877  0.29174382    -0.80100
O5          O  0.52098174  0.70296363  0.20840905    -0.78400
O6          O  0.56764642  0.62184042  0.29148011    -0.82600
O7          O  0.56761535  0.62182714  0.20851050    -0.77500
O8          O  0.57743978  0.72393151  0.29169086    -0.79200
O9          O  0.47485285  0.63068284  0.20828784    -0.82000
C10         C  0.59355066  0.64836014  0.19577231     0.98800
C11         C  0.59356258  0.64837832  0.30423990     1.06200
O12         O  0.54005955  0.65882001  0.25000290    -1.11000
O13         O  0.47482192  0.63065484  0.29167301    -0.73400
O14         O  0.49552322  0.59516249  0.29161521    -0.76900
O15         O  0.60388756  0.67822824  0.20829131    -0.77600
C16         C  0.47574679  0.60496715  0.30431034     0.97700
O17         O  0.49548963  0.59513650  0.20843847    -0.75500
O18         O  0.52096121  0.70293447  0.29161089    -0.80700
C19         C  0.55073348  0.72284098  0.19567956     1.00300
C20         C  0.55071591  0.72283470  0.30431872     1.06200
O21         O  0.57745159  0.72391267  0.20828499    -0.76400
C22         C  0.47574702  0.60496517  0.19569720     1.04500
Fe23       Fe  0.37205940  0.45146507  0.99999587     1.65800
Fe24       Fe  0.31724198  0.48302653  0.50000924     1.73200
Fe25       Fe  0.28510151  0.39595247  0.50000112     1.54400
O26         O  0.30538034  0.37966391  0.45825939    -0.80100
O27         O  0.28060208  0.46251050  0.04159507    -0.78400
O28         O  0.36179245  0.41590773  0.45852506    -0.82600
O29         O  0.36180379  0.41593872  0.04149797    -0.77500
O30         O  0.25965975  0.40606581  0.45830965    -0.79200
O31         O  0.35288719  0.50865940  0.04171701    -0.82000
C32         C  0.33527330  0.38999730  0.05423337     0.98800
C33         C  0.33525759  0.38998672  0.44576512     1.06200
O34         O  0.32477851  0.44346531  0.50000209    -1.11000
O35         O  0.35291860  0.50869239  0.45833540    -0.73400
O36         O  0.38843875  0.48802109  0.45839090    -0.76900
O37         O  0.30539926  0.37965180  0.04171295    -0.77600
C38         C  0.37861848  0.50778471  0.44569818     0.97700
O39         O  0.38846303  0.48805464  0.04156844    -0.75500
O40         O  0.28063475  0.46253273  0.45839088    -0.80700
C41         C  0.26073313  0.43276074  0.05432674     1.00300
C42         C  0.26074242  0.43277993  0.44568118     1.06200
O43         O  0.25967738  0.40605271  0.04172202    -0.76400
C44         C  0.37861726  0.50778301  0.05430801     1.04500
Fe45       Fe  0.07436348  0.45603528  0.25001799     1.65800
Fe46       Fe  0.16059534  0.48517522  0.25000058     1.73200
Fe47       Fe  0.10280178  0.39852819  0.25000251     1.54400
O48         O  0.06619339  0.38325693  0.29181512    -0.80100
O49         O  0.17553153  0.46374354  0.20845659    -0.78400
O50         O  0.04792024  0.42075031  0.29147358    -0.82600
O51         O  0.04799175  0.42085202  0.20845792    -0.77500
O52         O  0.13821490  0.40759311  0.29167922    -0.79200
O53         O  0.15190985  0.51157224  0.20825310    -0.82000
C54         C  0.04741263  0.39445377  0.19571409     0.98800
C55         C  0.04742035  0.39441493  0.30429685     1.06200
O56         O  0.11259674  0.44656213  0.25000693    -1.11000
O57         O  0.15190097  0.51164387  0.29166347    -0.73400
O58         O  0.09578155  0.49244340  0.29163964    -0.76900
O59         O  0.06610148  0.38322686  0.20828058    -0.77600
C60         C  0.12569504  0.51156218  0.30431962     0.97700
O61         O  0.09582713  0.49255261  0.20850314    -0.75500
O62         O  0.17549601  0.46379286  0.29162752    -0.80700
C63         C  0.16451510  0.43385752  0.19567442     1.00300
C64         C  0.16454132  0.43388965  0.30432336     1.06200
O65         O  0.13812592  0.40757517  0.20823407    -0.76400
C66         C  0.12571596  0.51158188  0.19571338     1.04500
Fe67       Fe  0.52752053  0.90920728  0.99998635     1.65800
Fe68       Fe  0.49834856  0.82298077  0.50000388     1.73200
Fe69       Fe  0.58501122  0.88074282  0.50000170     1.54400
O70         O  0.60029819  0.91734853  0.45819537    -0.80100
O71         O  0.51977123  0.80803777  0.04154787    -0.78400
O72         O  0.56281429  0.93563761  0.45852730    -0.82600
O73         O  0.56271758  0.93557017  0.04154469    -0.77500
O74         O  0.57593325  0.84533548  0.45832444    -0.79200
O75         O  0.47195587  0.83167591  0.04174715    -0.82000
C76         C  0.58911418  0.93613597  0.05428593     0.98800
C77         C  0.58915098  0.93612788  0.44571078     1.06200
O78         O  0.53697740  0.87096748  0.49999734    -1.11000
O79         O  0.47188598  0.83168349  0.45834253    -0.73400
O80         O  0.49110131  0.88779831  0.45836583    -0.76900
O81         O  0.60032673  0.91743630  0.04172132    -0.77600
C82         C  0.47197350  0.85788863  0.44568727     0.97700
O83         O  0.49099719  0.88775553  0.04150514    -0.75500
O84         O  0.51972352  0.80807184  0.45837957    -0.80700
C85         C  0.54965945  0.81904298  0.05432814     1.00300
C86         C  0.54962811  0.81901802  0.44568165     1.06200
O87         O  0.57595081  0.84542064  0.04176650    -0.76400
C88         C  0.47195580  0.85786982  0.05429017     1.04500
Fe89       Fe  0.90994273  0.37348575  0.99999623     1.65800
Fe90       Fe  0.82384002  0.31505945  0.50002059     1.73200
Fe91       Fe  0.88214576  0.28740655  0.49999744     1.54400
O92         O  0.91871721  0.30931221  0.45823030    -0.80100
O93         O  0.80919628  0.27860362  0.04155476    -0.78400
O94         O  0.93659757  0.36516590  0.45849730    -0.82600
O95         O  0.93655079  0.36518242  0.04155817    -0.77500
O96         O  0.84684072  0.26054453  0.45832373    -0.79200
O97         O  0.83222565  0.35012929  0.04174185    -0.82000
C98         C  0.93734148  0.33945878  0.05426057     0.98800
C99         C  0.93732462  0.33942942  0.44572563     1.06200
O100        O  0.87197035  0.32529615  0.50000459    -1.11000
O101        O  0.83222114  0.35020322  0.45838143    -0.73400
O102        O  0.88824883  0.38801992  0.45838497    -0.76900
O103        O  0.91879719  0.30935532  0.04168795    -0.77600
C104        C  0.85828219  0.37670668  0.44572944     0.97700
O105        O  0.88822249  0.38806238  0.04154314    -0.75500
O106        O  0.80921493  0.27868087  0.45840812    -0.80700
C107        C  0.82042763  0.26001415  0.05431428     1.00300
C108        C  0.82039555  0.26003150  0.44570110     1.06200
O109        O  0.84691962  0.26059197  0.04174606    -0.76400
C110        C  0.85827920  0.37669368  0.05429897     1.04500
Fe111      Fe  0.61014837  0.07351305  0.25000710     1.65800
Fe112      Fe  0.66851473  0.15961858  0.24998421     1.73200
Fe113      Fe  0.69625746  0.10138752  0.25000717     1.54400
O114        O  0.67437802  0.06481843  0.29177861    -0.80100
O115        O  0.70498106  0.17429490  0.20845350    -0.78400
O116        O  0.61850558  0.04688798  0.29150127    -0.82600
O117        O  0.61848925  0.04693913  0.20844511    -0.77500
O118        O  0.72309957  0.13670182  0.29168014    -0.79200
O119        O  0.63343287  0.15119920  0.20825943    -0.82000
C120        C  0.64422908  0.04617457  0.19574202     0.98800
C121        C  0.64425865  0.04619131  0.30427932     1.06200
O122        O  0.65832841  0.11151215  0.24999959    -1.11000
O123        O  0.63335406  0.15120165  0.29162223    -0.73400
O124        O  0.59557813  0.09516993  0.29162097    -0.76900
O125        O  0.67433335  0.06473420  0.20831635    -0.77600
C126        C  0.60686393  0.12512779  0.30427651     0.97700
O127        O  0.59553478  0.09519978  0.20846198    -0.75500
O128        O  0.70489878  0.17427361  0.29159799    -0.80700
C129        C  0.72359611  0.16309391  0.19569057     1.00300
C130        C  0.72357754  0.16312630  0.30430417     1.06200
O131        O  0.72304936  0.13661920  0.20825557    -0.76400
C132        C  0.60687892  0.12513389  0.19570315     1.04500
Fe133      Fe  0.90867168  0.52806584  0.25001874     1.65800
Fe134      Fe  0.82244449  0.49893250  0.24999962     1.73200
Fe135      Fe  0.88024001  0.58557858  0.25000254     1.54400
O136        O  0.91684084  0.60084643  0.29181158    -0.80100
O137        O  0.80751485  0.52036873  0.20846102    -0.78400
O138        O  0.93511450  0.56335315  0.29147162    -0.82600
O139        O  0.93504162  0.56324851  0.20845843    -0.77500
O140        O  0.84483051  0.57651658  0.29167187    -0.79200
O141        O  0.83112506  0.47253589  0.20825153    -0.82000
C142        C  0.93562262  0.58964953  0.19572074     0.98800
C143        C  0.93561266  0.58968848  0.30429255     1.06200
O144        O  0.87044249  0.53754313  0.25000683    -1.11000
O145        O  0.83113315  0.47245960  0.29165866    -0.73400
O146        O  0.88725207  0.49165850  0.29164337    -0.76900
O147        O  0.91693791  0.60087879  0.20828933    -0.77600
C148        C  0.85733649  0.47253948  0.30431892     0.97700
O149        O  0.88720571  0.49154604  0.20850401    -0.75500
O150        O  0.80755129  0.52031622  0.29162561    -0.80700
C151        C  0.81853624  0.55025475  0.19567879     1.00300
C152        C  0.81850801  0.55022012  0.30431791     1.06200
O153        O  0.84492458  0.57653609  0.20823630    -0.76400
C154        C  0.85731618  0.47252100  0.19571300     1.04500
Fe155      Fe  0.45543405  0.07473714  0.99998678     1.65800
Fe156      Fe  0.48464188  0.16096921  0.50000378     1.73200
Fe157      Fe  0.39797174  0.10323895  0.50000134     1.54400
O158        O  0.38267067  0.06663170  0.45819470    -0.80100
O159        O  0.46323328  0.17592768  0.04154897    -0.78400
O160        O  0.42013783  0.04832135  0.45852899    -0.82600
O161        O  0.42023330  0.04838803  0.04154252    -0.77500
O162        O  0.40706609  0.13865106  0.45832331    -0.79200
O163        O  0.51102291  0.15225700  0.04174687    -0.82000
C164        C  0.39384455  0.04783598  0.05428577     0.98800
C165        C  0.39380870  0.04784442  0.44571055     1.06200
O166        O  0.44599831  0.11299116  0.49999734    -1.11000
O167        O  0.51109131  0.15224897  0.45834103    -0.73400
O168        O  0.49185462  0.09613018  0.45836693    -0.76900
O169        O  0.38264173  0.06654428  0.04172198    -0.77600
C170        C  0.51099134  0.12603711  0.44568656     0.97700
O171        O  0.49195728  0.09617280  0.04150650    -0.75500
O172        O  0.46328061  0.17589429  0.45837958    -0.80700
C173        C  0.43334725  0.16493658  0.05432889     1.00300
C174        C  0.43337850  0.16496178  0.44568097     1.06200
O175        O  0.40704849  0.13856641  0.04176643    -0.76400
C176        C  0.51100909  0.12605642  0.05429111     1.04500
Fe177      Fe  0.61099828  0.53254460  0.99999323     1.65800
Fe178      Fe  0.66584410  0.50101903  0.50000868     1.73200
Fe179      Fe  0.69794839  0.58808727  0.50000118     1.54400
O180        O  0.67766213  0.60436210  0.45826384    -0.80100
O181        O  0.70248073  0.52155029  0.04159131    -0.78400
O182        O  0.62125338  0.56810169  0.45852367    -0.82600
O183        O  0.62123946  0.56806742  0.04149712    -0.77500
O184        O  0.72339961  0.57799121  0.45831660    -0.79200
O185        O  0.63020494  0.47537401  0.04171522    -0.82000
C186        C  0.64776576  0.59401697  0.05422774     0.98800
C187        C  0.64778481  0.59403025  0.44576874     1.06200
O188        O  0.65828574  0.54056615  0.50000102    -1.11000
O189        O  0.63017370  0.47534036  0.45833590    -0.73400
O190        O  0.59463581  0.49599061  0.45838572    -0.76900
O191        O  0.67764011  0.60437326  0.04170639    -0.77600
C192        C  0.60446870  0.47623596  0.44569560     0.97700
O193        O  0.59460783  0.49595341  0.04156492    -0.75500
O194        O  0.70244785  0.52152789  0.45839382    -0.80700
C195        C  0.72233653  0.55130316  0.05432104     1.00300
C196        C  0.72232880  0.55128420  0.44568794     1.06200
O197        O  0.72337937  0.57800394  0.04171766    -0.76400
C198        C  0.60446709  0.47623575  0.05430488     1.04500
Fe199      Fe  0.45104094  0.37248208  0.25000883     1.65800
Fe200      Fe  0.48260682  0.31767238  0.24999450     1.73200
Fe201      Fe  0.39552018  0.28553879  0.25000315     1.54400
O202        O  0.37923009  0.30581446  0.29174532    -0.80100
O203        O  0.46208589  0.28103760  0.20840895    -0.78400
O204        O  0.41548119  0.36221834  0.29148116    -0.82600
O205        O  0.41551115  0.36222989  0.20850658    -0.77500
O206        O  0.40563402  0.26010119  0.29169231    -0.79200
O207        O  0.50824477  0.35331372  0.20828584    -0.82000
C208        C  0.38956676  0.33570358  0.19576984     0.98800
C209        C  0.38955644  0.33568756  0.30424118     1.06200
O210        O  0.44304011  0.32520834  0.25000223    -1.11000
O211        O  0.50827726  0.35334378  0.29167034    -0.73400
O212        O  0.48760047  0.38885700  0.29161180    -0.76900
O213        O  0.37921847  0.30583333  0.20829049    -0.77600
C214        C  0.50736677  0.37903948  0.30430659     0.97700
O215        O  0.48763293  0.38888127  0.20843690    -0.75500
O216        O  0.46210780  0.28106889  0.29161114    -0.80700
C217        C  0.43233107  0.26117252  0.19567968     1.00300
C218        C  0.43235024  0.26118119  0.30431986     1.06200
O219        O  0.40562094  0.26011832  0.20828502    -0.76400
C220        C  0.50736466  0.37903901  0.19569567     1.04500
Fe221      Fe  0.07302412  0.61060100  0.99999678     1.65800
Fe222      Fe  0.15912833  0.66900383  0.50002048     1.73200
Fe223      Fe  0.10084768  0.69668768  0.49999715     1.54400
O224        O  0.06427716  0.67479358  0.45823582    -0.80100
O225        O  0.17377949  0.70545706  0.04155422    -0.78400
O226        O  0.04638296  0.61893637  0.45849862    -0.82600
O227        O  0.04642711  0.61892100  0.04155429    -0.77500
O228        O  0.13615108  0.72353745  0.45832508    -0.79200
O229        O  0.15073194  0.63393077  0.04173961    -0.82000
C230        C  0.04564908  0.64465119  0.05425611     0.98800
C231        C  0.04566567  0.64467865  0.44573009     1.06200
O232        O  0.11100550  0.65878514  0.50000472    -1.11000
O233        O  0.15073684  0.63385956  0.45838066    -0.73400
O234        O  0.09470720  0.59605223  0.45838637    -0.76900
O235        O  0.06420019  0.67475280  0.04168522    -0.77600
C236        C  0.12467264  0.60735932  0.44572967     0.97700
O237        O  0.09473177  0.59601215  0.04154715    -0.75500
O238        O  0.17376234  0.70538281  0.45841138    -0.80700
C239        C  0.16255850  0.72405575  0.05431080     1.00300
C240        C  0.16258990  0.72403839  0.44570405     1.06200
O241        O  0.13607513  0.72349275  0.04174095    -0.76400
C242        C  0.12467474  0.60737232  0.05430021     1.04500
Fe243      Fe  0.37286194  0.91044540  0.25000796     1.65800
Fe244      Fe  0.31446315  0.82434857  0.24998404     1.73200
Fe245      Fe  0.28676364  0.88261396  0.25000675     1.54400
O246        O  0.30865676  0.91918244  0.29177026    -0.80100
O247        O  0.27800472  0.80969402  0.20845090    -0.78400
O248        O  0.36452219  0.93708099  0.29150659    -0.82600
O249        O  0.36453813  0.93703625  0.20844881    -0.77500
O250        O  0.25991404  0.84731231  0.29167959    -0.79200
O251        O  0.34954252  0.83274895  0.20826420    -0.82000
C252        C  0.33880364  0.93781110  0.19574499     0.98800
C253        C  0.33877546  0.93779518  0.30427621     1.06200
O254        O  0.32467485  0.87246347  0.24999955    -1.11000
O255        O  0.34961306  0.83274415  0.29162540    -0.73400
O256        O  0.38741518  0.88876925  0.29161836    -0.76900
O257        O  0.30869796  0.91925872  0.20831599    -0.77600
C258        C  0.37611270  0.85880936  0.30427653     0.97700
O259        O  0.38745632  0.88874443  0.20845902    -0.75500
O260        O  0.27807837  0.80971141  0.29159174    -0.80700
C261        C  0.25940019  0.82090921  0.19569385     1.00300
C262        C  0.25941725  0.82087840  0.30429976     1.06200
O263        O  0.25995892  0.84738762  0.20826274    -0.76400
C264        C  0.37610097  0.85880703  0.19570435     1.04500
C265        C  0.23660312  0.80248032  0.33460063    -0.16900
C266        C  0.21816868  0.78588750  0.36008284     0.07100
C267        C  0.19757513  0.76528837  0.38992112     0.09000
C268        C  0.18098657  0.74685140  0.41540314    -0.17800
C269        C  0.23658015  0.80251522  0.16539603    -0.16900
C270        C  0.21813900  0.78592208  0.13991830     0.07100
C271        C  0.19753978  0.76531790  0.11008642     0.09000
C272        C  0.18095083  0.74687458  0.08460871    -0.17800
C273        C  0.52980810  0.39810763  0.33459348    -0.16900
C274        C  0.54803816  0.41494724  0.36007781     0.07100
C275        C  0.56859451  0.43553631  0.38992811     0.09000
C276        C  0.58541023  0.45378717  0.41541074    -0.17800
C277        C  0.52980053  0.39811280  0.16540765    -0.16900
C278        C  0.54802742  0.41495474  0.13992295     0.07100
C279        C  0.56858327  0.43554352  0.11007243     0.09000
C280        C  0.58540181  0.45379192  0.08459005    -0.17800
C281        C  0.37599063  0.02475403  0.41540384    -0.16900
C282        C  0.36345554  0.00472091  0.38987318     0.07100
C283        C  0.35173355  0.98100641  0.35999857     0.09000
C284        C  0.34434099  0.96096699  0.33452171    -0.17800
C285        C  0.34436845  0.96098240  0.16549907    -0.16900
C286        C  0.35176575  0.98101711  0.14001611     0.07100
C287        C  0.36349312  0.00472280  0.11013290     0.09000
C288        C  0.37602915  0.02474889  0.08459595    -0.17800
C289        C  0.42928339  0.18346196  0.08464207    -0.16900
C290        C  0.42757149  0.20005920  0.11011540     0.07100
C291        C  0.42745004  0.22053546  0.13993304     0.09000
C292        C  0.42887245  0.23875014  0.16538798    -0.17800
C293        C  0.42931107  0.18348577  0.41536923    -0.16900
C294        C  0.42759841  0.20008086  0.38989396     0.07100
C295        C  0.42747554  0.22055267  0.36007261     0.09000
C296        C  0.42889539  0.23876291  0.33461405    -0.17800
C297        C  0.95870835  0.60749079  0.33459875    -0.16900
C298        C  0.97874180  0.62001648  0.36013113     0.07100
C299        C  0.00245433  0.63172839  0.39000740     0.09000
C300        C  0.02249270  0.63911405  0.41548562    -0.17800
C301        C  0.02247661  0.63908729  0.08450138    -0.16900
C302        C  0.00244362  0.63169581  0.10998586     0.07100
C303        C  0.97874076  0.61997702  0.13987214     0.09000
C304        C  0.95871513  0.60744934  0.16541072    -0.17800
C305        C  0.80002645  0.55433963  0.16536653    -0.16900
C306        C  0.78344108  0.55606668  0.13989082     0.07100
C307        C  0.76297380  0.55619589  0.11006981     0.09000
C308        C  0.74476102  0.55477084  0.08461216    -0.17800
C309        C  0.74474910  0.55474846  0.41539407    -0.16900
C310        C  0.76295657  0.55617015  0.38993225     0.07100
C311        C  0.78341758  0.55603794  0.36010643     0.09000
C312        C  0.79999991  0.55430928  0.33462842    -0.17800
C313        C  0.53362700  0.13021128  0.41538666    -0.16900
C314        C  0.55185977  0.13183038  0.38988251     0.07100
C315        C  0.57218494  0.13156796  0.36002169     0.09000
C316        C  0.58857987  0.12956148  0.33454150    -0.17800
C317        C  0.53364233  0.13021356  0.08458676    -0.16900
C318        C  0.55187183  0.13182105  0.11008876     0.07100
C319        C  0.57219377  0.13155187  0.13994906     0.09000
C320        C  0.58858868  0.12954913  0.16543158    -0.17800
C321        C  0.74638993  0.18153838  0.33460632    -0.16900
C322        C  0.76482101  0.19814663  0.36008659     0.07100
C323        C  0.78541251  0.21876310  0.38992137     0.09000
C324        C  0.80199987  0.23721041  0.41540040    -0.17800
C325        C  0.74641426  0.18150217  0.16539130    -0.16900
C326        C  0.76485167  0.19811106  0.13991553     0.07100
C327        C  0.78544828  0.21873331  0.11008675     0.09000
C328        C  0.80203600  0.23718716  0.08461215    -0.17800
C329        C  0.85314384  0.44990214  0.33462044    -0.16900
C330        C  0.85152326  0.43167287  0.36012644     0.07100
C331        C  0.85179776  0.41135712  0.38998778     0.09000
C332        C  0.85382259  0.39497398  0.41546702    -0.17800
C333        C  0.85383859  0.39496733  0.08456825    -0.16900
C334        C  0.85181729  0.41135005  0.11004989     0.07100
C335        C  0.85153503  0.43166177  0.13991134     0.09000
C336        C  0.85314264  0.44988688  0.16541538    -0.17800
C337        C  0.60697119  0.95922583  0.41540821    -0.16900
C338        C  0.61952557  0.97926264  0.38988259     0.07100
C339        C  0.63128076  0.00298143  0.36000954     0.09000
C340        C  0.63869487  0.02302288  0.33453000    -0.17800
C341        C  0.63866717  0.02300670  0.16549148    -0.16900
C342        C  0.63124803  0.00296975  0.14000600     0.07100
C343        C  0.61948697  0.97925984  0.11012442     0.09000
C344        C  0.60693123  0.95923013  0.08459243    -0.17800
C345        C  0.39438831  0.85436280  0.33454142    -0.16900
C346        C  0.41077749  0.85234749  0.36002175     0.07100
C347        C  0.43110014  0.85208138  0.38988338     0.09000
C348        C  0.44933380  0.85370395  0.41538769    -0.17800
C349        C  0.39438272  0.85437892  0.16543317    -0.16900
C350        C  0.41077149  0.85236689  0.13995003     0.07100
C351        C  0.43108958  0.85209307  0.11008849     0.09000
C352        C  0.44931935  0.85370281  0.08458584    -0.17800
C353        C  0.12913025  0.58908963  0.41546798    -0.16900
C354        C  0.13117190  0.57271518  0.38999029     0.07100
C355        C  0.13147664  0.55241422  0.36012923     0.09000
C356        C  0.12987867  0.53419553  0.33462256    -0.17800
C357        C  0.12911425  0.58909739  0.08456902    -0.16900
C358        C  0.13115329  0.57272400  0.11004961     0.07100
C359        C  0.13146681  0.55242783  0.13991055     0.09000
C360        C  0.12988182  0.53421288  0.16541512    -0.17800
C361        C  0.02431920  0.37661516  0.33460623    -0.16900
C362        C  0.00427759  0.36409934  0.36013620     0.07100
C363        C  0.98055345  0.35239373  0.39000773     0.09000
C364        C  0.96050664  0.34500477  0.41548098    -0.17800
C365        C  0.96052344  0.34503354  0.08450513    -0.16900
C366        C  0.98056574  0.35242809  0.10998419     0.07100
C367        C  0.00428094  0.36413966  0.13986451     0.09000
C368        C  0.02431540  0.37665695  0.16540064    -0.17800
C369        C  0.33966293  0.37167784  0.41550468    -0.16900
C370        C  0.34663637  0.35882721  0.38996742     0.07100
C371        C  0.35839726  0.34706619  0.36004211     0.09000
C372        C  0.37124755  0.34009286  0.33450355    -0.17800
C373        C  0.37126021  0.34011026  0.16550608    -0.16900
C374        C  0.35841254  0.34708395  0.13996464     0.07100
C375        C  0.34665361  0.35884282  0.11003563     0.09000
C376        C  0.33967975  0.37169071  0.08449536    -0.17800
C377        C  0.18305813  0.42980160  0.33463372    -0.16900
C378        C  0.19964765  0.42806971  0.36010641     0.07100
C379        C  0.22011439  0.42792460  0.38992680     0.09000
C380        C  0.23832207  0.42933022  0.41538512    -0.17800
C381        C  0.23830855  0.42930759  0.08461990    -0.16900
C382        C  0.22009642  0.42789952  0.11007488     0.07100
C383        C  0.19962532  0.42804316  0.13989136     0.09000
C384        C  0.18303344  0.42977385  0.16536251    -0.17800
C385        C  0.64338096  0.61234171  0.41551416    -0.16900
C386        C  0.63643230  0.62521227  0.38997858     0.07100
C387        C  0.62470486  0.63699887  0.36005003     0.09000
C388        C  0.61187134  0.64398290  0.33450535    -0.17800
C389        C  0.61185602  0.64396177  0.16550487    -0.16900
C390        C  0.62468582  0.63697706  0.13995696     0.07100
C391        C  0.63641041  0.62519198  0.11002374     0.09000
C392        C  0.64335947  0.61232507  0.08448468    -0.17800
C393        C  0.39769058  0.53022180  0.08459359    -0.16900
C394        C  0.41451911  0.54846369  0.11007573     0.07100
C395        C  0.43508417  0.56904527  0.13992527     0.09000
C396        C  0.45331434  0.58588559  0.16540929    -0.17800
C397        C  0.45330949  0.58589400  0.33459825    -0.16900
C398        C  0.43507722  0.56905621  0.36008230     0.07100
C399        C  0.41451220  0.54847356  0.38993174     0.09000
C400        C  0.39768647  0.53022887  0.41541362    -0.17800
C401        C  0.55373490  0.80052560  0.08464068    -0.16900
C402        C  0.55545738  0.78393496  0.11011411     0.07100
C403        C  0.55559119  0.76346625  0.13993204     0.09000
C404        C  0.55417891  0.74525705  0.16538757    -0.17800
C405        C  0.55370760  0.80050283  0.41536993    -0.16900
C406        C  0.55543157  0.78391526  0.38989413     0.07100
C407        C  0.55556762  0.76345197  0.36007185     0.09000
C408        C  0.55415822  0.74524731  0.33461281    -0.17800
Fe409      Fe  0.53208276  0.61155521  0.75001068     1.65800
Fe410      Fe  0.50047719  0.66632932  0.74999557     1.73200
Fe411      Fe  0.58757069  0.69850721  0.75000269     1.54400
O412        O  0.60387736  0.67824876  0.79174378    -0.80100
O413        O  0.52098181  0.70296370  0.70840903    -0.78400
O414        O  0.56764641  0.62184041  0.79148014    -0.82600
O415        O  0.56761536  0.62182709  0.70851043    -0.77500
O416        O  0.57743988  0.72393151  0.79169085    -0.79200
O417        O  0.47485298  0.63068292  0.70828777    -0.82000
C418        C  0.59355063  0.64836012  0.69577219     0.98800
C419        C  0.59356250  0.64837833  0.80423990     1.06200
O420        O  0.54005965  0.65882003  0.75000293    -1.11000
O421        O  0.47482206  0.63065497  0.79167302    -0.73400
O422        O  0.49552318  0.59516246  0.79161520    -0.76900
O423        O  0.60388761  0.67822822  0.70829128    -0.77600
C424        C  0.47574682  0.60496722  0.80431039     0.97700
O425        O  0.49548959  0.59513642  0.70843845    -0.75500
O426        O  0.52096132  0.70293456  0.79161079    -0.80700
C427        C  0.55073346  0.72284100  0.69567958     1.00300
C428        C  0.55071596  0.72283462  0.80431870     1.06200
O429        O  0.57745165  0.72391266  0.70828489    -0.76400
C430        C  0.47574705  0.60496517  0.69569716     1.04500
Fe431      Fe  0.37205934  0.45146514  0.49999591     1.65800
Fe432      Fe  0.31724203  0.48302647  0.00000925     1.73200
Fe433      Fe  0.28510151  0.39595239  0.00000109     1.54400
O434        O  0.30538035  0.37966393  0.95825925    -0.80100
O435        O  0.28060204  0.46251053  0.54159501    -0.78400
O436        O  0.36179247  0.41590764  0.95852507    -0.82600
O437        O  0.36180371  0.41593877  0.54149804    -0.77500
O438        O  0.25965977  0.40606576  0.95830956    -0.79200
O439        O  0.35288720  0.50865953  0.54171703    -0.82000
C440        C  0.33527326  0.38999734  0.55423338     0.98800
C441        C  0.33525764  0.38998665  0.94576508     1.06200
O442        O  0.32477862  0.44346521  0.00000203    -1.11000
O443        O  0.35291853  0.50869225  0.95833543    -0.73400
O444        O  0.38843876  0.48802103  0.95839092    -0.76900
O445        O  0.30539923  0.37965185  0.54171313    -0.77600
C446        C  0.37861843  0.50778462  0.94569816     0.97700
O447        O  0.38846298  0.48805469  0.54156846    -0.75500
O448        O  0.28063475  0.46253266  0.95839098    -0.80700
C449        C  0.26073311  0.43276075  0.55432671     1.00300
C450        C  0.26074243  0.43277992  0.94568120     1.06200
O451        O  0.25967743  0.40605279  0.54172207    -0.76400
C452        C  0.37861724  0.50778307  0.55430806     1.04500
Fe453      Fe  0.07436352  0.45603530  0.75001797     1.65800
Fe454      Fe  0.16059544  0.48517524  0.75000059     1.73200
Fe455      Fe  0.10280186  0.39852826  0.75000246     1.54400
O456        O  0.06619345  0.38325701  0.79181512    -0.80100
O457        O  0.17553156  0.46374355  0.70845667    -0.78400
O458        O  0.04792031  0.42075043  0.79147350    -0.82600
O459        O  0.04799192  0.42085219  0.70845781    -0.77500
O460        O  0.13821496  0.40759320  0.79167910    -0.79200
O461        O  0.15191000  0.51157236  0.70825298    -0.82000
C462        C  0.04741256  0.39445384  0.69571414     0.98800
C463        C  0.04742041  0.39441507  0.80429688     1.06200
O464        O  0.11259685  0.44656221  0.75000692    -1.11000
O465        O  0.15190103  0.51164397  0.79166343    -0.73400
O466        O  0.09578156  0.49244340  0.79163965    -0.76900
O467        O  0.06610143  0.38322686  0.70828063    -0.77600
C468        C  0.12569507  0.51156226  0.80431952     0.97700
O469        O  0.09582724  0.49255267  0.70850317    -0.75500
O470        O  0.17549597  0.46379290  0.79162756    -0.80700
C471        C  0.16451517  0.43385753  0.69567450     1.00300
C472        C  0.16454133  0.43388977  0.80432334     1.06200
O473        O  0.13812593  0.40757520  0.70823399    -0.76400
C474        C  0.12571608  0.51158196  0.69571340     1.04500
Fe475      Fe  0.52752043  0.90920720  0.49998636     1.65800
Fe476      Fe  0.49834858  0.82298087  0.00000391     1.73200
Fe477      Fe  0.58501120  0.88074284  0.00000171     1.54400
O478        O  0.60029836  0.91734864  0.95819542    -0.80100
O479        O  0.51977122  0.80803771  0.54154783    -0.78400
O480        O  0.56281451  0.93563780  0.95852731    -0.82600
O481        O  0.56271751  0.93557009  0.54154470    -0.77500
O482        O  0.57593330  0.84533551  0.95832448    -0.79200
O483        O  0.47195590  0.83167579  0.54174713    -0.82000
C484        C  0.58911410  0.93613590  0.55428591     0.98800
C485        C  0.58915119  0.93612787  0.94571073     1.06200
O486        O  0.53697735  0.87096749  0.99999734    -1.11000
O487        O  0.47188601  0.83168368  0.95834251    -0.73400
O488        O  0.49110142  0.88779853  0.95836578    -0.76900
O489        O  0.60032670  0.91743629  0.54172134    -0.77600
C490        C  0.47197354  0.85788893  0.94568728     0.97700
O491        O  0.49099715  0.88775539  0.54150510    -0.75500
O492        O  0.51972354  0.80807195  0.95837955    -0.80700
C493        C  0.54965950  0.81904297  0.55432807     1.00300
C494        C  0.54962822  0.81901813  0.94568171     1.06200
O495        O  0.57595085  0.84542064  0.54176653    -0.76400
C496        C  0.47195577  0.85786968  0.55429009     1.04500
Fe497      Fe  0.90994258  0.37348568  0.49999618     1.65800
Fe498      Fe  0.82384005  0.31505945  0.00002061     1.73200
Fe499      Fe  0.88214579  0.28740651  0.99999745     1.54400
O500        O  0.91871717  0.30931216  0.95823036    -0.80100
O501        O  0.80919620  0.27860357  0.54155475    -0.78400
O502        O  0.93659759  0.36516585  0.95849748    -0.82600
O503        O  0.93655079  0.36518245  0.54155802    -0.77500
O504        O  0.84684076  0.26054452  0.95832375    -0.79200
O505        O  0.83222556  0.35012933  0.54174186    -0.82000
C506        C  0.93734149  0.33945884  0.55426051     0.98800
C507        C  0.93732465  0.33942940  0.94572571     1.06200
O508        O  0.87197048  0.32529623  0.00000465    -1.11000
O509        O  0.83222116  0.35020318  0.95838141    -0.73400
O510        O  0.88824887  0.38801996  0.95838513    -0.76900
O511        O  0.91879721  0.30935537  0.54168796    -0.77600
C512        C  0.85828215  0.37670657  0.94572953     0.97700
O513        O  0.88822237  0.38806235  0.54154306    -0.75500
O514        O  0.80921500  0.27868089  0.95840817    -0.80700
C515        C  0.82042759  0.26001412  0.55431429     1.00300
C516        C  0.82039560  0.26003151  0.94570116     1.06200
O517        O  0.84691963  0.26059201  0.54174617    -0.76400
C518        C  0.85827914  0.37669367  0.55429892     1.04500
Fe519      Fe  0.61014837  0.07351302  0.75000719     1.65800
Fe520      Fe  0.66851473  0.15961861  0.74998419     1.73200
Fe521      Fe  0.69625745  0.10138752  0.75000713     1.54400
O522        O  0.67437796  0.06481837  0.79177835    -0.80100
O523        O  0.70498097  0.17429486  0.70845346    -0.78400
O524        O  0.61850560  0.04688801  0.79150146    -0.82600
O525        O  0.61848916  0.04693901  0.70844525    -0.77500
O526        O  0.72309958  0.13670180  0.79168006    -0.79200
O527        O  0.63343282  0.15119918  0.70825947    -0.82000
C528        C  0.64422893  0.04617461  0.69574198     0.98800
C529        C  0.64425874  0.04619129  0.80427926     1.06200
O530        O  0.65832842  0.11151216  0.74999962    -1.11000
O531        O  0.63335405  0.15120176  0.79162222    -0.73400
O532        O  0.59557816  0.09516996  0.79162111    -0.76900
O533        O  0.67433329  0.06473426  0.70831611    -0.77600
C534        C  0.60686406  0.12512791  0.80427659     0.97700
O535        O  0.59553463  0.09519973  0.70846206    -0.75500
O536        O  0.70489880  0.17427362  0.79159791    -0.80700
C537        C  0.72359604  0.16309394  0.69569046     1.00300
C538        C  0.72357746  0.16312628  0.80430407     1.06200
O539        O  0.72304933  0.13661921  0.70825549    -0.76400
C540        C  0.60687887  0.12513383  0.69570325     1.04500
Fe541      Fe  0.90867170  0.52806586  0.75001874     1.65800
Fe542      Fe  0.82244450  0.49893254  0.74999963     1.73200
Fe543      Fe  0.88024002  0.58557861  0.75000251     1.54400
O544        O  0.91684080  0.60084645  0.79181159    -0.80100
O545        O  0.80751468  0.52036869  0.70846103    -0.78400
O546        O  0.93511455  0.56335324  0.79147164    -0.82600
O547        O  0.93504163  0.56324853  0.70845848    -0.77500
O548        O  0.84483045  0.57651652  0.79167190    -0.79200
O549        O  0.83112501  0.47253583  0.70825143    -0.82000
C550        C  0.93562269  0.58964954  0.69572077     0.98800
C551        C  0.93561264  0.58968853  0.80429256     1.06200
O552        O  0.87044252  0.53754317  0.75000683    -1.11000
O553        O  0.83113321  0.47245963  0.79165867    -0.73400
O554        O  0.88725211  0.49165863  0.79164334    -0.76900
O555        O  0.91693790  0.60087877  0.70828923    -0.77600
C556        C  0.85733659  0.47253959  0.80431889     0.97700
O557        O  0.88720571  0.49154612  0.70850402    -0.75500
O558        O  0.80755129  0.52031615  0.79162575    -0.80700
C559        C  0.81853607  0.55025461  0.69567874     1.00300
C560        C  0.81850785  0.55021997  0.80431793     1.06200
O561        O  0.84492451  0.57653605  0.70823628    -0.76400
C562        C  0.85731617  0.47252103  0.69571306     1.04500
Fe563      Fe  0.45543392  0.07473704  0.49998684     1.65800
Fe564      Fe  0.48464188  0.16096922  0.00000378     1.73200
Fe565      Fe  0.39797183  0.10323894  0.00000137     1.54400
O566        O  0.38267080  0.06663174  0.95819469    -0.80100
O567        O  0.46323326  0.17592761  0.54154897    -0.78400
O568        O  0.42013795  0.04832140  0.95852897    -0.82600
O569        O  0.42023318  0.04838806  0.54154254    -0.77500
O570        O  0.40706612  0.13865113  0.95832329    -0.79200
O571        O  0.51102275  0.15225684  0.54174683    -0.82000
C572        C  0.39384439  0.04783596  0.55428566     0.98800
C573        C  0.39380885  0.04784449  0.94571055     1.06200
O574        O  0.44599833  0.11299113  0.99999736    -1.11000
O575        O  0.51109149  0.15224919  0.95834096    -0.73400
O576        O  0.49185477  0.09613039  0.95836686    -0.76900
O577        O  0.38264160  0.06654432  0.54172197    -0.77600
C578        C  0.51099155  0.12603743  0.94568662     0.97700
O579        O  0.49195708  0.09617264  0.54150655    -0.75500
O580        O  0.46328066  0.17589449  0.95837958    -0.80700
C581        C  0.43334716  0.16493662  0.55432879     1.00300
C582        C  0.43337858  0.16496183  0.94568083     1.06200
O583        O  0.40704842  0.13856637  0.54176641    -0.76400
C584        C  0.51100896  0.12605628  0.55429102     1.04500
Fe585      Fe  0.61099826  0.53254455  0.49999324     1.65800
Fe586      Fe  0.66584411  0.50101907  0.00000869     1.73200
Fe587      Fe  0.69794839  0.58808729  0.00000116     1.54400
O588        O  0.67766211  0.60436206  0.95826383    -0.80100
O589        O  0.70248063  0.52155024  0.54159124    -0.78400
O590        O  0.62125341  0.56810178  0.95852372    -0.82600
O591        O  0.62123946  0.56806739  0.54149707    -0.77500
O592        O  0.72339962  0.57799121  0.95831666    -0.79200
O593        O  0.63020493  0.47537399  0.54171515    -0.82000
C594        C  0.64776570  0.59401694  0.55422777     0.98800
C595        C  0.64778485  0.59403016  0.94576875     1.06200
O596        O  0.65828573  0.54056619  0.00000104    -1.11000
O597        O  0.63017371  0.47534042  0.95833591    -0.73400
O598        O  0.59463578  0.49599061  0.95838560    -0.76900
O599        O  0.67764008  0.60437322  0.54170646    -0.77600
C600        C  0.60446859  0.47623591  0.94569556     0.97700
O601        O  0.59460787  0.49595342  0.54156495    -0.75500
O602        O  0.70244789  0.52152791  0.95839375    -0.80700
C603        C  0.72233652  0.55130309  0.55432101     1.00300
C604        C  0.72232889  0.55128422  0.94568800     1.06200
O605        O  0.72337934  0.57800387  0.54171767    -0.76400
C606        C  0.60446713  0.47623570  0.55430490     1.04500
Fe607      Fe  0.45104090  0.37248207  0.75000886     1.65800
Fe608      Fe  0.48260688  0.31767238  0.74999444     1.73200
Fe609      Fe  0.39552014  0.28553876  0.75000311     1.54400
O610        O  0.37923014  0.30581441  0.79174533    -0.80100
O611        O  0.46208591  0.28103762  0.70840894    -0.78400
O612        O  0.41548117  0.36221830  0.79148117    -0.82600
O613        O  0.41551111  0.36222988  0.70850657    -0.77500
O614        O  0.40563400  0.26010112  0.79169223    -0.79200
O615        O  0.50824471  0.35331372  0.70828578    -0.82000
C616        C  0.38956676  0.33570357  0.69576997     0.98800
C617        C  0.38955640  0.33568751  0.80424118     1.06200
O618        O  0.44304014  0.32520834  0.75000210    -1.11000
O619        O  0.50827727  0.35334378  0.79167032    -0.73400
O620        O  0.48760043  0.38885699  0.79161178    -0.76900
O621        O  0.37921852  0.30583331  0.70829046    -0.77600
C622        C  0.50736674  0.37903949  0.80430663     0.97700
O623        O  0.48763282  0.38888125  0.70843697    -0.75500
O624        O  0.46210783  0.28106886  0.79161109    -0.80700
C625        C  0.43233107  0.26117249  0.69567966     1.00300
C626        C  0.43235021  0.26118113  0.80431983     1.06200
O627        O  0.40562091  0.26011827  0.70828500    -0.76400
C628        C  0.50736469  0.37903910  0.69569568     1.04500
Fe629      Fe  0.07302420  0.61060102  0.49999682     1.65800
Fe630      Fe  0.15912823  0.66900378  0.00002050     1.73200
Fe631      Fe  0.10084761  0.69668764  0.99999712     1.54400
O632        O  0.06427711  0.67479355  0.95823583    -0.80100
O633        O  0.17377944  0.70545700  0.54155421    -0.78400
O634        O  0.04638288  0.61893634  0.95849858    -0.82600
O635        O  0.04642713  0.61892098  0.54155431    -0.77500
O636        O  0.13615104  0.72353742  0.95832503    -0.79200
O637        O  0.15073209  0.63393083  0.54173960    -0.82000
C638        C  0.04564916  0.64465116  0.55425614     0.98800
C639        C  0.04566562  0.64467864  0.94573007     1.06200
O640        O  0.11100539  0.65878510  0.00000472    -1.11000
O641        O  0.15073686  0.63385954  0.95838071    -0.73400
O642        O  0.09470717  0.59605222  0.95838632    -0.76900
O643        O  0.06420020  0.67475286  0.54168522    -0.77600
C644        C  0.12467266  0.60735938  0.94572966     0.97700
O645        O  0.09473188  0.59601221  0.54154725    -0.75500
O646        O  0.17376232  0.70538280  0.95841140    -0.80700
C647        C  0.16255844  0.72405567  0.55431067     1.00300
C648        C  0.16258988  0.72403836  0.94570404     1.06200
O649        O  0.13607518  0.72349275  0.54174100    -0.76400
C650        C  0.12467496  0.60737247  0.55430018     1.04500
Fe651      Fe  0.37286197  0.91044539  0.75000787     1.65800
Fe652      Fe  0.31446319  0.82434856  0.74998403     1.73200
Fe653      Fe  0.28676370  0.88261394  0.75000673     1.54400
O654        O  0.30865675  0.91918244  0.79177023    -0.80100
O655        O  0.27800475  0.80969398  0.70845094    -0.78400
O656        O  0.36452214  0.93708093  0.79150649    -0.82600
O657        O  0.36453811  0.93703619  0.70844875    -0.77500
O658        O  0.25991405  0.84731228  0.79167956    -0.79200
O659        O  0.34954256  0.83274883  0.70826422    -0.82000
C660        C  0.33880360  0.93781105  0.69574499     0.98800
C661        C  0.33877531  0.93779503  0.80427616     1.06200
O662        O  0.32467494  0.87246346  0.74999952    -1.11000
O663        O  0.34961315  0.83274422  0.79162530    -0.73400
O664        O  0.38741531  0.88876928  0.79161834    -0.76900
O665        O  0.30869796  0.91925869  0.70831602    -0.77600
C666        C  0.37611275  0.85880938  0.80427647     0.97700
O667        O  0.38745641  0.88874436  0.70845896    -0.75500
O668        O  0.27807846  0.80971146  0.79159180    -0.80700
C669        C  0.25940031  0.82090923  0.69569395     1.00300
C670        C  0.25941720  0.82087839  0.80429969     1.06200
O671        O  0.25995891  0.84738758  0.70826275    -0.76400
C672        C  0.37610093  0.85880692  0.69570434     1.04500
C673        C  0.23660312  0.80248026  0.83460061    -0.16900
C674        C  0.21816872  0.78588745  0.86008284     0.07100
C675        C  0.19757505  0.76528834  0.88992109     0.09000
C676        C  0.18098658  0.74685137  0.91540313    -0.17800
C677        C  0.23658010  0.80251509  0.66539597    -0.16900
C678        C  0.21813910  0.78592212  0.63991851     0.07100
C679        C  0.19753963  0.76531777  0.61008631     0.09000
C680        C  0.18095094  0.74687452  0.58460890    -0.17800
C681        C  0.52980812  0.39810757  0.83459344    -0.16900
C682        C  0.54803827  0.41494722  0.86007787     0.07100
C683        C  0.56859443  0.43553630  0.88992808     0.09000
C684        C  0.58541036  0.45378726  0.91541071    -0.17800
C685        C  0.52980049  0.39811272  0.66540770    -0.16900
C686        C  0.54802754  0.41495480  0.63992292     0.07100
C687        C  0.56858318  0.43554346  0.61007245     0.09000
C688        C  0.58540192  0.45379191  0.58458997    -0.17800
C689        C  0.37599080  0.02475394  0.91540379    -0.16900
C690        C  0.36345568  0.00472101  0.88987320     0.07100
C691        C  0.35173359  0.98100637  0.85999848     0.09000
C692        C  0.34434110  0.96096702  0.83452173    -0.17800
C693        C  0.34436842  0.96098238  0.66549905    -0.16900
C694        C  0.35176564  0.98101702  0.64001614     0.07100
C695        C  0.36349298  0.00472278  0.61013287     0.09000
C696        C  0.37602911  0.02474887  0.58459599    -0.17800
C697        C  0.42928342  0.18346192  0.58464200    -0.16900
C698        C  0.42757163  0.20005932  0.61011540     0.07100
C699        C  0.42744995  0.22053539  0.63993297     0.09000
C700        C  0.42887249  0.23875015  0.66538805    -0.17800
C701        C  0.42931106  0.18348577  0.91536929    -0.16900
C702        C  0.42759838  0.20008088  0.88989404     0.07100
C703        C  0.42747550  0.22055251  0.86007262     0.09000
C704        C  0.42889550  0.23876295  0.83461413    -0.17800
C705        C  0.95870833  0.60749091  0.83459874    -0.16900
C706        C  0.97874176  0.62001654  0.86013108     0.07100
C707        C  0.00245429  0.63172845  0.89000735     0.09000
C708        C  0.02249267  0.63911412  0.91548556    -0.17800
C709        C  0.02247667  0.63908734  0.58450132    -0.16900
C710        C  0.00244369  0.63169580  0.60998579     0.07100
C711        C  0.97874080  0.61997701  0.63987209     0.09000
C712        C  0.95871518  0.60744938  0.66541068    -0.17800
C713        C  0.80002635  0.55433958  0.66536665    -0.16900
C714        C  0.78344094  0.55606652  0.63989083     0.07100
C715        C  0.76297381  0.55619588  0.61006989     0.09000
C716        C  0.74476094  0.55477072  0.58461215    -0.17800
C717        C  0.74474925  0.55474852  0.91539415    -0.16900
C718        C  0.76295652  0.55617007  0.88993217     0.07100
C719        C  0.78341780  0.55603806  0.86010660     0.09000
C720        C  0.79999989  0.55430928  0.83462846    -0.17800
C721        C  0.53362715  0.13021149  0.91538669    -0.16900
C722        C  0.55185970  0.13183048  0.88988256     0.07100
C723        C  0.57218505  0.13156817  0.86002172     0.09000
C724        C  0.58857985  0.12956155  0.83454162    -0.17800
C725        C  0.53364230  0.13021356  0.58458686    -0.16900
C726        C  0.55187169  0.13182092  0.61008876     0.07100
C727        C  0.57219376  0.13155174  0.63994919     0.09000
C728        C  0.58858859  0.12954900  0.66543160    -0.17800
C729        C  0.74639000  0.18153841  0.83460617    -0.16900
C730        C  0.76482105  0.19814648  0.86008640     0.07100
C731        C  0.78541255  0.21876314  0.88992130     0.09000
C732        C  0.80199986  0.23721036  0.91540034    -0.17800
C733        C  0.74641420  0.18150224  0.66539120    -0.16900
C734        C  0.76485171  0.19811110  0.63991538     0.07100
C735        C  0.78544834  0.21873331  0.61008671     0.09000
C736        C  0.80203600  0.23718726  0.58461212    -0.17800
C737        C  0.85314410  0.44990217  0.83462046    -0.16900
C738        C  0.85152337  0.43167296  0.86012643     0.07100
C739        C  0.85179787  0.41135720  0.88998798     0.09000
C740        C  0.85382275  0.39497402  0.91546695    -0.17800
C741        C  0.85383861  0.39496742  0.58456833    -0.16900
C742        C  0.85181725  0.41135001  0.61004986     0.07100
C743        C  0.85153492  0.43166174  0.63991151     0.09000
C744        C  0.85314263  0.44988684  0.66541534    -0.17800
C745        C  0.60697143  0.95922594  0.91540831    -0.16900
C746        C  0.61952574  0.97926270  0.88988269     0.07100
C747        C  0.63128084  0.00298146  0.86000959     0.09000
C748        C  0.63869509  0.02302286  0.83452997    -0.17800
C749        C  0.63866698  0.02300659  0.66549144    -0.16900
C750        C  0.63124803  0.00296987  0.64000602     0.07100
C751        C  0.61948688  0.97925979  0.61012436     0.09000
C752        C  0.60693119  0.95923018  0.58459253    -0.17800
C753        C  0.39438845  0.85436294  0.83454141    -0.16900
C754        C  0.41077762  0.85234777  0.86002179     0.07100
C755        C  0.43110022  0.85208158  0.88988340     0.09000
C756        C  0.44933389  0.85370416  0.91538764    -0.17800
C757        C  0.39438276  0.85437883  0.66543321    -0.16900
C758        C  0.41077144  0.85236674  0.63995011     0.07100
C759        C  0.43108949  0.85209279  0.61008845     0.09000
C760        C  0.44931927  0.85370274  0.58458579    -0.17800
C761        C  0.12913022  0.58908965  0.91546795    -0.16900
C762        C  0.13117182  0.57271521  0.88999037     0.07100
C763        C  0.13147656  0.55241417  0.86012926     0.09000
C764        C  0.12987863  0.53419552  0.83462268    -0.17800
C765        C  0.12911427  0.58909741  0.58456911    -0.16900
C766        C  0.13115334  0.57272410  0.61004955     0.07100
C767        C  0.13146682  0.55242785  0.63991059     0.09000
C768        C  0.12988195  0.53421296  0.66541500    -0.17800
C769        C  0.02431927  0.37661523  0.83460613    -0.16900
C770        C  0.00427757  0.36409940  0.86013619     0.07100
C771        C  0.98055357  0.35239368  0.89000777     0.09000
C772        C  0.96050663  0.34500476  0.91548108    -0.17800
C773        C  0.96052344  0.34503366  0.58450511    -0.16900
C774        C  0.98056568  0.35242805  0.60998421     0.07100
C775        C  0.00428093  0.36413974  0.63986447     0.09000
C776        C  0.02431537  0.37665701  0.66540066    -0.17800
C777        C  0.33966298  0.37167786  0.91550465    -0.16900
C778        C  0.34663626  0.35882703  0.88996736     0.07100
C779        C  0.35839717  0.34706612  0.86004208     0.09000
C780        C  0.37124748  0.34009278  0.83450346    -0.17800
C781        C  0.37126014  0.34011031  0.66550607    -0.16900
C782        C  0.35841263  0.34708392  0.63996470     0.07100
C783        C  0.34665371  0.35884306  0.61003563     0.09000
C784        C  0.33967989  0.37169073  0.58449544    -0.17800
C785        C  0.18305833  0.42980179  0.83463358    -0.16900
C786        C  0.19964771  0.42806982  0.86010628     0.07100
C787        C  0.22011443  0.42792466  0.88992676     0.09000
C788        C  0.23832214  0.42933033  0.91538503    -0.17800
C789        C  0.23830855  0.42930772  0.58461987    -0.16900
C790        C  0.22009643  0.42789953  0.61007493     0.07100
C791        C  0.19962528  0.42804308  0.63989143     0.09000
C792        C  0.18303346  0.42977382  0.66536260    -0.17800
C793        C  0.64338110  0.61234188  0.91551407    -0.16900
C794        C  0.63643238  0.62521224  0.88997867     0.07100
C795        C  0.62470495  0.63699907  0.86004990     0.09000
C796        C  0.61187141  0.64398275  0.83450537    -0.17800
C797        C  0.61185593  0.64396180  0.66550475    -0.16900
C798        C  0.62468569  0.63697699  0.63995681     0.07100
C799        C  0.63641042  0.62519211  0.61002366     0.09000
C800        C  0.64335952  0.61232506  0.58448469    -0.17800
C801        C  0.39769055  0.53022180  0.58459365    -0.16900
C802        C  0.41451908  0.54846370  0.61007580     0.07100
C803        C  0.43508416  0.56904525  0.63992531     0.09000
C804        C  0.45331439  0.58588560  0.66540929    -0.17800
C805        C  0.45330955  0.58589419  0.83459825    -0.16900
C806        C  0.43507720  0.56905622  0.86008235     0.07100
C807        C  0.41451222  0.54847369  0.88993181     0.09000
C808        C  0.39768636  0.53022881  0.91541366    -0.17800
C809        C  0.55373496  0.80052560  0.58464072    -0.16900
C810        C  0.55545740  0.78393502  0.61011418     0.07100
C811        C  0.55559114  0.76346618  0.63993207     0.09000
C812        C  0.55417901  0.74525714  0.66538759    -0.17800
C813        C  0.55370762  0.80050284  0.91536992    -0.16900
C814        C  0.55543150  0.78391527  0.88989420     0.07100
C815        C  0.55556764  0.76345194  0.86007182     0.09000
C816        C  0.55415822  0.74524737  0.83461279    -0.17800
loop_ 
_geom_bond_atom_site_label_1 
_geom_bond_atom_site_label_2 
_geom_bond_distance 
_geom_bond_site_symmetry_2 
_ccdc_geom_bond_type 
Fe1          O17   2.062       .  S
Fe1           O7   2.059       .  S
Fe1          O14   2.062       .  S
Fe1           O6   2.059       .  S
Fe1          O12   1.981       .  S
Fe2           O5   2.063       .  S
Fe2           O9   2.067       .  S
Fe2          O13   2.067       .  S
Fe2          O18   2.063       .  S
Fe2          O12   1.984       .  S
Fe3          O21   2.068       .  S
Fe3           O8   2.068       .  S
Fe3          O15   2.070       .  S
Fe3           O4   2.070       .  S
Fe3          O12   1.987       .  S
O4           C11   1.267       .  A
O5           C19   1.267       .  A
O6           C11   1.266       .  A
O7           C10   1.266       .  A
O8           C20   1.267       .  A
O9           C22   1.267       .  A
C10          O15   1.267       .  A
C10         C389   1.434       .  S
C11         C388   1.434       .  S
O13          C16   1.267       .  A
O14          C16   1.266       .  A
C16         C397   1.435       .  S
O17          C22   1.266       .  A
O18          C20   1.267       .  A
C19          O21   1.267       .  A
C19         C404   1.436       .  S
C20         C408   1.436       .  S
C22         C396   1.435       .  S
Fe23         O39   2.062   1_556  S
Fe23         O29   2.059   1_556  S
Fe23        O444   2.062       .  S
Fe23        O436   2.059       .  S
Fe23        O442   1.981   1_556  S
Fe24         O35   2.067       .  S
Fe24         O40   2.063       .  S
Fe24        O435   2.063       .  S
Fe24        O439   2.067       .  S
Fe24         O34   1.984       .  S
Fe25         O30   2.068       .  S
Fe25         O26   2.070       .  S
Fe25        O451   2.068       .  S
Fe25        O445   2.070       .  S
Fe25         O34   1.987       .  S
O26          C33   1.267       .  A
O27        Fe432   2.063       .  S
O27          C41   1.267       .  A
O28        Fe431   2.059       .  S
O28          C33   1.266       .  A
O29          C32   1.266       .  A
O30          C42   1.267       .  A
O31        Fe432   2.067       .  S
O31          C44   1.267       .  A
C32          O37   1.267       .  A
C32         C376   1.435       .  S
C33         C369   1.435       .  S
O34        Fe431   1.981       .  S
O35          C38   1.267       .  A
O36        Fe431   2.062       .  S
O36          C38   1.266       .  A
O37        Fe433   2.070       .  S
C38         C400   1.435       .  S
O39          C44   1.266       .  A
O40          C42   1.267       .  A
C41          O43   1.267       .  A
C41         C381   1.436       .  S
C42         C380   1.436       .  S
O43        Fe433   2.068       .  S
C44         C393   1.435       .  S
Fe45         O61   2.061       .  S
Fe45         O51   2.059       .  S
Fe45         O58   2.061       .  S
Fe45         O50   2.059       .  S
Fe45         O56   1.981       .  S
Fe46         O49   2.063       .  S
Fe46         O53   2.067       .  S
Fe46         O57   2.067       .  S
Fe46         O62   2.062       .  S
Fe46         O56   1.984       .  S
Fe47         O65   2.069       .  S
Fe47         O52   2.069       .  S
Fe47         O59   2.071       .  S
Fe47         O48   2.071       .  S
Fe47         O56   1.987       .  S
O48          C55   1.268       .  A
O49          C63   1.267       .  A
O50          C55   1.266       .  A
O51          C54   1.266       .  A
O52          C64   1.268       .  A
O53          C66   1.267       .  A
C54          O59   1.268       .  A
C54         C368   1.435       .  S
C55         C361   1.435       .  S
O57          C60   1.267       .  A
O58          C60   1.266       .  A
C60         C356   1.434       .  S
O61          C66   1.266       .  A
O62          C64   1.267       .  A
C63          O65   1.268       .  A
C63         C384   1.436       .  S
C64         C377   1.436       .  S
C66         C360   1.434       .  S
Fe67         O83   2.061   1_556  S
Fe67         O73   2.059   1_556  S
Fe67        O488   2.061       .  S
Fe67        O480   2.059       .  S
Fe67        O486   1.981       .  S
Fe68         O79   2.067       .  S
Fe68         O84   2.062       .  S
Fe68        O479   2.063       .  S
Fe68        O483   2.067       .  S
Fe68         O78   1.984       .  S
Fe69         O74   2.069       .  S
Fe69         O70   2.071       .  S
Fe69        O495   2.069       .  S
Fe69        O489   2.071       .  S
Fe69         O78   1.987       .  S
O70          C77   1.268       .  A
O71        Fe476   2.063       .  S
O71          C85   1.267       .  A
O72        Fe475   2.059       .  S
O72          C77   1.266       .  A
O73          C76   1.266       .  A
O74          C86   1.268       .  A
O75        Fe476   2.067       .  S
O75          C88   1.267       .  A
C76          O81   1.268       .  A
C76         C344   1.435       .  S
C77         C337   1.435       .  S
O78        Fe475   1.981       .  S
O79          C82   1.267       .  A
O80        Fe475   2.061       .  S
O80          C82   1.266       .  A
O81        Fe477   2.071       .  S
C82         C348   1.434       .  S
O83          C88   1.266       .  A
O84          C86   1.267       .  A
C85          O87   1.268       .  A
C85         C401   1.436       .  S
C86         C405   1.436       .  S
O87        Fe477   2.069       .  S
C88         C352   1.434       .  S
Fe89        O105   2.062   1_556  S
Fe89         O95   2.060   1_556  S
Fe89        O510   2.062       .  S
Fe89        O502   2.060       .  S
Fe89        O508   1.981   1_556  S
Fe90        O101   2.066       .  S
Fe90        O106   2.062       .  S
Fe90        O501   2.062       .  S
Fe90        O505   2.066       .  S
Fe90        O100   1.984       .  S
Fe91         O96   2.069       .  S
Fe91         O92   2.070       .  S
Fe91        O517   2.068       .  S
Fe91        O511   2.070       .  S
Fe91        O100   1.987       .  S
O92          C99   1.268       .  A
O93        Fe498   2.062       .  S
O93         C107   1.267       .  A
O94        Fe497   2.060       .  S
O94          C99   1.266       .  A
O95          C98   1.266       .  A
O96         C108   1.268       .  A
O97        Fe498   2.066       .  S
O97         C110   1.267       .  A
C98         O103   1.268       .  A
C98         C365   1.435       .  S
C99         C364   1.435       .  S
O100       Fe497   1.981       .  S
O101        C104   1.267       .  A
O102       Fe497   2.062       .  S
O102        C104   1.266       .  A
O103       Fe499   2.070   1_554  S
C104        C332   1.434       .  S
O105        C110   1.266       .  A
O106        C108   1.267       .  A
C107        O109   1.267       .  A
C107        C328   1.435       .  S
C108        C324   1.435       .  S
O109       Fe499   2.068   1_554  S
C110        C333   1.434       .  S
Fe111       O127   2.062       .  S
Fe111       O117   2.060       .  S
Fe111       O124   2.062       .  S
Fe111       O116   2.060       .  S
Fe111       O122   1.981       .  S
Fe112       O115   2.062       .  S
Fe112       O119   2.066       .  S
Fe112       O123   2.066       .  S
Fe112       O128   2.062       .  S
Fe112       O122   1.984       .  S
Fe113       O131   2.068       .  S
Fe113       O118   2.069       .  S
Fe113       O125   2.070       .  S
Fe113       O114   2.070       .  S
Fe113       O122   1.987       .  S
O114        C121   1.268       .  A
O115        C129   1.267       .  A
O116        C121   1.266       .  A
O117        C120   1.266       .  A
O118        C130   1.268       .  A
O119        C132   1.267       .  A
C120        O125   1.268       .  A
C120        C341   1.435       .  S
C121        C340   1.435       .  S
O123        C126   1.267       .  A
O124        C126   1.266       .  A
C126        C316   1.434       .  S
O127        C132   1.266       .  A
O128        C130   1.267       .  A
C129        O131   1.267       .  A
C129        C325   1.435       .  S
C130        C321   1.435       .  S
C132        C320   1.434       .  S
Fe133       O149   2.061       .  S
Fe133       O139   2.059       .  S
Fe133       O146   2.061       .  S
Fe133       O138   2.059       .  S
Fe133       O144   1.981       .  S
Fe134       O137   2.062       .  S
Fe134       O141   2.067       .  S
Fe134       O145   2.067       .  S
Fe134       O150   2.062       .  S
Fe134       O144   1.984       .  S
Fe135       O153   2.069       .  S
Fe135       O140   2.069       .  S
Fe135       O147   2.071       .  S
Fe135       O136   2.071       .  S
Fe135       O144   1.987       .  S
O136        C143   1.268       .  A
O137        C151   1.267       .  A
O138        C143   1.266       .  A
O139        C142   1.266       .  A
O140        C152   1.268       .  A
O141        C154   1.267       .  A
C142        O147   1.268       .  A
C142        C304   1.435       .  S
C143        C297   1.435       .  S
O145        C148   1.267       .  A
O146        C148   1.266       .  A
C148        C329   1.434       .  S
O149        C154   1.266       .  A
O150        C152   1.267       .  A
C151        O153   1.268       .  A
C151        C305   1.436       .  S
C152        C312   1.436       .  S
C154        C336   1.434       .  S
Fe155       O171   2.061   1_556  S
Fe155       O161   2.059   1_556  S
Fe155       O576   2.061       .  S
Fe155       O568   2.059       .  S
Fe155       O574   1.981       .  S
Fe156       O167   2.067       .  S
Fe156       O172   2.062       .  S
Fe156       O567   2.063       .  S
Fe156       O571   2.067       .  S
Fe156       O166   1.984       .  S
Fe157       O162   2.069       .  S
Fe157       O158   2.071       .  S
Fe157       O583   2.069       .  S
Fe157       O577   2.071       .  S
Fe157       O166   1.987       .  S
O158        C165   1.268       .  A
O159       Fe564   2.063       .  S
O159        C173   1.267       .  A
O160       Fe563   2.059       .  S
O160        C165   1.266       .  A
O161        C164   1.266       .  A
O162        C174   1.268       .  A
O163       Fe564   2.067       .  S
O163        C176   1.267       .  A
C164        O169   1.268       .  A
C164        C288   1.435       .  S
C165        C281   1.435       .  S
O166       Fe563   1.981       .  S
O167        C170   1.267       .  A
O168       Fe563   2.061       .  S
O168        C170   1.266       .  A
O169       Fe565   2.071       .  S
C170        C313   1.434       .  S
O171        C176   1.266       .  A
O172        C174   1.267       .  A
C173        O175   1.268       .  A
C173        C289   1.436       .  S
C174        C293   1.436       .  S
O175       Fe565   2.069       .  S
C176        C317   1.434       .  S
Fe177       O193   2.062   1_556  S
Fe177       O183   2.059   1_556  S
Fe177       O598   2.062       .  S
Fe177       O590   2.059       .  S
Fe177       O596   1.981   1_556  S
Fe178       O189   2.067       .  S
Fe178       O194   2.063       .  S
Fe178       O589   2.063       .  S
Fe178       O593   2.067       .  S
Fe178       O188   1.984       .  S
Fe179       O184   2.068       .  S
Fe179       O180   2.070       .  S
Fe179       O605   2.068       .  S
Fe179       O599   2.070       .  S
Fe179       O188   1.987       .  S
O180        C187   1.267       .  A
O181       Fe586   2.063       .  S
O181        C195   1.267       .  A
O182       Fe585   2.059       .  S
O182        C187   1.266       .  A
O183        C186   1.266       .  A
O184        C196   1.267       .  A
O185       Fe586   2.067       .  S
O185        C198   1.267       .  A
C186        O191   1.267       .  A
C186        C392   1.434       .  S
C187        C385   1.434       .  S
O188       Fe585   1.981       .  S
O189        C192   1.267       .  A
O190       Fe585   2.062       .  S
O190        C192   1.266       .  A
O191       Fe587   2.070       .  S
C192        C276   1.435       .  S
O193        C198   1.266       .  A
O194        C196   1.267       .  A
C195        O197   1.267       .  A
C195        C308   1.436       .  S
C196        C309   1.436       .  S
O197       Fe587   2.068       .  S
C198        C280   1.435       .  S
Fe199       O215   2.062       .  S
Fe199       O205   2.059       .  S
Fe199       O212   2.062       .  S
Fe199       O204   2.059       .  S
Fe199       O210   1.981       .  S
Fe200       O203   2.063       .  S
Fe200       O207   2.067       .  S
Fe200       O211   2.067       .  S
Fe200       O216   2.063       .  S
Fe200       O210   1.984       .  S
Fe201       O219   2.068       .  S
Fe201       O206   2.068       .  S
Fe201       O213   2.070       .  S
Fe201       O202   2.070       .  S
Fe201       O210   1.987       .  S
O202        C209   1.267       .  A
O203        C217   1.267       .  A
O204        C209   1.266       .  A
O205        C208   1.266       .  A
O206        C218   1.267       .  A
O207        C220   1.267       .  A
C208        O213   1.267       .  A
C208        C373   1.435       .  S
C209        C372   1.435       .  S
O211        C214   1.267       .  A
O212        C214   1.266       .  A
C214        C273   1.435       .  S
O215        C220   1.266       .  A
O216        C218   1.267       .  A
C217        O219   1.267       .  A
C217        C292   1.436       .  S
C218        C296   1.436       .  S
C220        C277   1.435       .  S
Fe221       O237   2.062   1_556  S
Fe221       O227   2.060   1_556  S
Fe221       O642   2.062       .  S
Fe221       O634   2.060       .  S
Fe221       O640   1.981   1_556  S
Fe222       O233   2.066       .  S
Fe222       O238   2.062       .  S
Fe222       O633   2.062       .  S
Fe222       O637   2.066       .  S
Fe222       O232   1.984       .  S
Fe223       O228   2.068       .  S
Fe223       O224   2.070       .  S
Fe223       O649   2.068       .  S
Fe223       O643   2.070       .  S
Fe223       O232   1.987       .  S
O224        C231   1.267       .  A
O225       Fe630   2.062       .  S
O225        C239   1.267       .  A
O226       Fe629   2.060       .  S
O226        C231   1.266       .  A
O227        C230   1.266       .  A
O228        C240   1.267       .  A
O229       Fe630   2.066       .  S
O229        C242   1.267       .  A
C230        O235   1.268       .  A
C230        C301   1.435       .  S
C231        C300   1.435       .  S
O232       Fe629   1.981       .  S
O233        C236   1.267       .  A
O234       Fe629   2.062       .  S
O234        C236   1.266       .  A
O235       Fe631   2.070   1_554  S
C236        C353   1.434       .  S
O237        C242   1.266       .  A
O238        C240   1.267       .  A
C239        O241   1.267       .  A
C239        C272   1.435       .  S
C240        C268   1.435       .  S
O241       Fe631   2.068   1_554  S
C242        C357   1.434       .  S
Fe243       O259   2.062       .  S
Fe243       O249   2.060       .  S
Fe243       O256   2.062       .  S
Fe243       O248   2.060       .  S
Fe243       O254   1.981       .  S
Fe244       O247   2.062       .  S
Fe244       O251   2.066       .  S
Fe244       O255   2.066       .  S
Fe244       O260   2.062       .  S
Fe244       O254   1.984       .  S
Fe245       O263   2.068       .  S
Fe245       O250   2.068       .  S
Fe245       O257   2.070       .  S
Fe245       O246   2.070       .  S
Fe245       O254   1.987       .  S
O246        C253   1.267       .  A
O247        C261   1.267       .  A
O248        C253   1.266       .  A
O249        C252   1.266       .  A
O250        C262   1.267       .  A
O251        C264   1.267       .  A
C252        O257   1.268       .  A
C252        C285   1.435       .  S
C253        C284   1.435       .  S
O255        C258   1.267       .  A
O256        C258   1.266       .  A
C258        C345   1.434       .  S
O259        C264   1.266       .  A
O260        C262   1.267       .  A
C261        O263   1.267       .  A
C261        C269   1.435       .  S
C262        C265   1.435       .  S
C264        C349   1.434       .  S
C265        C266   1.206       .  T
C266        C267   1.412       .  S
C267        C268   1.206       .  T
C269        C270   1.206       .  T
C270        C271   1.412       .  S
C271        C272   1.206       .  T
C273        C274   1.205       .  T
C274        C275   1.411       .  S
C275        C276   1.205       .  T
C277        C278   1.205       .  T
C278        C279   1.411       .  S
C279        C280   1.205       .  T
C281        C282   1.206       .  T
C282        C283   1.412   1_545  S
C283        C284   1.206       .  T
C285        C286   1.206       .  T
C286        C287   1.412   1_565  S
C287        C288   1.206       .  T
C289        C290   1.206       .  T
C290        C291   1.412       .  S
C291        C292   1.206       .  T
C293        C294   1.206       .  T
C294        C295   1.412       .  S
C295        C296   1.206       .  T
C297        C298   1.206       .  T
C298        C299   1.412   1_655  S
C299        C300   1.206       .  T
C301        C302   1.206       .  T
C302        C303   1.412   1_455  S
C303        C304   1.206       .  T
C305        C306   1.206       .  T
C306        C307   1.412       .  S
C307        C308   1.206       .  T
C309        C310   1.206       .  T
C310        C311   1.412       .  S
C311        C312   1.206       .  T
C313        C314   1.205       .  T
C314        C315   1.411       .  S
C315        C316   1.205       .  T
C317        C318   1.205       .  T
C318        C319   1.411       .  S
C319        C320   1.205       .  T
C321        C322   1.206       .  T
C322        C323   1.412       .  S
C323        C324   1.206       .  T
C325        C326   1.206       .  T
C326        C327   1.412       .  S
C327        C328   1.206       .  T
C329        C330   1.205       .  T
C330        C331   1.411       .  S
C331        C332   1.205       .  T
C333        C334   1.205       .  T
C334        C335   1.411       .  S
C335        C336   1.205       .  T
C337        C338   1.206       .  T
C338        C339   1.412   1_565  S
C339        C340   1.206       .  T
C341        C342   1.206       .  T
C342        C343   1.412   1_545  S
C343        C344   1.206       .  T
C345        C346   1.205       .  T
C346        C347   1.411       .  S
C347        C348   1.205       .  T
C349        C350   1.205       .  T
C350        C351   1.411       .  S
C351        C352   1.205       .  T
C353        C354   1.205       .  T
C354        C355   1.411       .  S
C355        C356   1.205       .  T
C357        C358   1.205       .  T
C358        C359   1.411       .  S
C359        C360   1.205       .  T
C361        C362   1.206       .  T
C362        C363   1.412   1_455  S
C363        C364   1.206       .  T
C365        C366   1.206       .  T
C366        C367   1.412   1_655  S
C367        C368   1.206       .  T
C369        C370   1.205       .  T
C370        C371   1.411       .  S
C371        C372   1.205       .  T
C373        C374   1.205       .  T
C374        C375   1.411       .  S
C375        C376   1.205       .  T
C377        C378   1.206       .  T
C378        C379   1.412       .  S
C379        C380   1.206       .  T
C381        C382   1.206       .  T
C382        C383   1.412       .  S
C383        C384   1.206       .  T
C385        C386   1.205       .  T
C386        C387   1.411       .  S
C387        C388   1.205       .  T
C389        C390   1.205       .  T
C390        C391   1.411       .  S
C391        C392   1.205       .  T
C393        C394   1.205       .  T
C394        C395   1.411       .  S
C395        C396   1.205       .  T
C397        C398   1.205       .  T
C398        C399   1.411       .  S
C399        C400   1.205       .  T
C401        C402   1.206       .  T
C402        C403   1.412       .  S
C403        C404   1.206       .  T
C405        C406   1.206       .  T
C406        C407   1.412       .  S
C407        C408   1.206       .  T
Fe409       O425   2.062       .  S
Fe409       O415   2.059       .  S
Fe409       O422   2.062       .  S
Fe409       O414   2.059       .  S
Fe409       O420   1.981       .  S
Fe410       O413   2.063       .  S
Fe410       O417   2.067       .  S
Fe410       O421   2.067       .  S
Fe410       O426   2.063       .  S
Fe410       O420   1.984       .  S
Fe411       O429   2.068       .  S
Fe411       O416   2.068       .  S
Fe411       O423   2.070       .  S
Fe411       O412   2.070       .  S
Fe411       O420   1.987       .  S
O412        C419   1.267       .  A
O413        C427   1.267       .  A
O414        C419   1.266       .  A
O415        C418   1.266       .  A
O416        C428   1.267       .  A
O417        C430   1.267       .  A
C418        O423   1.267       .  A
C418        C797   1.434       .  S
C419        C796   1.434       .  S
O421        C424   1.267       .  A
O422        C424   1.266       .  A
C424        C805   1.435       .  S
O425        C430   1.266       .  A
O426        C428   1.267       .  A
C427        O429   1.267       .  A
C427        C812   1.436       .  S
C428        C816   1.436       .  S
C430        C804   1.435       .  S
Fe431       O447   2.062       .  S
Fe431       O437   2.059       .  S
Fe432       O443   2.067   1_554  S
Fe432       O448   2.063   1_554  S
Fe432       O442   1.984       .  S
Fe433       O438   2.068   1_554  S
Fe433       O434   2.070   1_554  S
Fe433       O442   1.987       .  S
O434        C441   1.267       .  A
O435        C449   1.267       .  A
O436        C441   1.266       .  A
O437        C440   1.266       .  A
O438        C450   1.267       .  A
O439        C452   1.267       .  A
C440        O445   1.267       .  A
C440        C784   1.435       .  S
C441        C777   1.435       .  S
O443        C446   1.267       .  A
O444        C446   1.266       .  A
C446        C808   1.435       .  S
O447        C452   1.266       .  A
O448        C450   1.267       .  A
C449        O451   1.267       .  A
C449        C789   1.436       .  S
C450        C788   1.436       .  S
C452        C801   1.435       .  S
Fe453       O469   2.061       .  S
Fe453       O459   2.059       .  S
Fe453       O466   2.061       .  S
Fe453       O458   2.059       .  S
Fe453       O464   1.981       .  S
Fe454       O457   2.063       .  S
Fe454       O461   2.067       .  S
Fe454       O465   2.067       .  S
Fe454       O470   2.062       .  S
Fe454       O464   1.984       .  S
Fe455       O473   2.069       .  S
Fe455       O460   2.069       .  S
Fe455       O467   2.071       .  S
Fe455       O456   2.071       .  S
Fe455       O464   1.987       .  S
O456        C463   1.268       .  A
O457        C471   1.267       .  A
O458        C463   1.266       .  A
O459        C462   1.266       .  A
O460        C472   1.268       .  A
O461        C474   1.267       .  A
C462        O467   1.268       .  A
C462        C776   1.435       .  S
C463        C769   1.435       .  S
O465        C468   1.267       .  A
O466        C468   1.266       .  A
C468        C764   1.434       .  S
O469        C474   1.266       .  A
O470        C472   1.267       .  A
C471        O473   1.268       .  A
C471        C792   1.436       .  S
C472        C785   1.436       .  S
C474        C768   1.434       .  S
Fe475       O491   2.061       .  S
Fe475       O481   2.059       .  S
Fe476       O487   2.067   1_554  S
Fe476       O492   2.062   1_554  S
Fe476       O486   1.984   1_554  S
Fe477       O482   2.069   1_554  S
Fe477       O478   2.071   1_554  S
Fe477       O486   1.987   1_554  S
O478        C485   1.268       .  A
O479        C493   1.267       .  A
O480        C485   1.266       .  A
O481        C484   1.266       .  A
O482        C494   1.268       .  A
O483        C496   1.267       .  A
C484        O489   1.268       .  A
C484        C752   1.435       .  S
C485        C745   1.435       .  S
O487        C490   1.267       .  A
O488        C490   1.266       .  A
C490        C756   1.434       .  S
O491        C496   1.266       .  A
O492        C494   1.267       .  A
C493        O495   1.268       .  A
C493        C809   1.436       .  S
C494        C813   1.436       .  S
C496        C760   1.434       .  S
Fe497       O513   2.062       .  S
Fe497       O503   2.060       .  S
Fe498       O509   2.066   1_554  S
Fe498       O514   2.062   1_554  S
Fe498       O508   1.984       .  S
Fe499       O504   2.069       .  S
Fe499       O500   2.070       .  S
Fe499       O508   1.987   1_556  S
O500        C507   1.268       .  A
O501        C515   1.267       .  A
O502        C507   1.266       .  A
O503        C506   1.266       .  A
O504        C516   1.268       .  A
O505        C518   1.267       .  A
C506        O511   1.268       .  A
C506        C773   1.435       .  S
C507        C772   1.435       .  S
O509        C512   1.267       .  A
O510        C512   1.266       .  A
C512        C740   1.434       .  S
O513        C518   1.266       .  A
O514        C516   1.267       .  A
C515        O517   1.267       .  A
C515        C736   1.435       .  S
C516        C732   1.435       .  S
C518        C741   1.434       .  S
Fe519       O535   2.062       .  S
Fe519       O525   2.060       .  S
Fe519       O532   2.062       .  S
Fe519       O524   2.060       .  S
Fe519       O530   1.981       .  S
Fe520       O523   2.062       .  S
Fe520       O527   2.066       .  S
Fe520       O531   2.066       .  S
Fe520       O536   2.062       .  S
Fe520       O530   1.984       .  S
Fe521       O539   2.068       .  S
Fe521       O526   2.069       .  S
Fe521       O533   2.070       .  S
Fe521       O522   2.070       .  S
Fe521       O530   1.987       .  S
O522        C529   1.268       .  A
O523        C537   1.267       .  A
O524        C529   1.266       .  A
O525        C528   1.266       .  A
O526        C538   1.268       .  A
O527        C540   1.267       .  A
C528        O533   1.268       .  A
C528        C749   1.435       .  S
C529        C748   1.435       .  S
O531        C534   1.267       .  A
O532        C534   1.266       .  A
C534        C724   1.434       .  S
O535        C540   1.266       .  A
O536        C538   1.267       .  A
C537        O539   1.267       .  A
C537        C733   1.435       .  S
C538        C729   1.435       .  S
C540        C728   1.434       .  S
Fe541       O557   2.061       .  S
Fe541       O547   2.059       .  S
Fe541       O554   2.061       .  S
Fe541       O546   2.059       .  S
Fe541       O552   1.981       .  S
Fe542       O545   2.062       .  S
Fe542       O549   2.067       .  S
Fe542       O553   2.067       .  S
Fe542       O558   2.062       .  S
Fe542       O552   1.984       .  S
Fe543       O561   2.069       .  S
Fe543       O548   2.069       .  S
Fe543       O555   2.071       .  S
Fe543       O544   2.071       .  S
Fe543       O552   1.987       .  S
O544        C551   1.268       .  A
O545        C559   1.267       .  A
O546        C551   1.266       .  A
O547        C550   1.266       .  A
O548        C560   1.268       .  A
O549        C562   1.267       .  A
C550        O555   1.268       .  A
C550        C712   1.435       .  S
C551        C705   1.435       .  S
O553        C556   1.267       .  A
O554        C556   1.266       .  A
C556        C737   1.434       .  S
O557        C562   1.266       .  A
O558        C560   1.267       .  A
C559        O561   1.268       .  A
C559        C713   1.436       .  S
C560        C720   1.436       .  S
C562        C744   1.434       .  S
Fe563       O579   2.061       .  S
Fe563       O569   2.059       .  S
Fe564       O575   2.067   1_554  S
Fe564       O580   2.062   1_554  S
Fe564       O574   1.984   1_554  S
Fe565       O570   2.069   1_554  S
Fe565       O566   2.071   1_554  S
Fe565       O574   1.987   1_554  S
O566        C573   1.268       .  A
O567        C581   1.267       .  A
O568        C573   1.266       .  A
O569        C572   1.266       .  A
O570        C582   1.268       .  A
O571        C584   1.267       .  A
C572        O577   1.268       .  A
C572        C696   1.435       .  S
C573        C689   1.435       .  S
O575        C578   1.267       .  A
O576        C578   1.266       .  A
C578        C721   1.434       .  S
O579        C584   1.266       .  A
O580        C582   1.267       .  A
C581        O583   1.268       .  A
C581        C697   1.436       .  S
C582        C701   1.436       .  S
C584        C725   1.434       .  S
Fe585       O601   2.062       .  S
Fe585       O591   2.059       .  S
Fe586       O597   2.067   1_554  S
Fe586       O602   2.063   1_554  S
Fe586       O596   1.984       .  S
Fe587       O592   2.068   1_554  S
Fe587       O588   2.070   1_554  S
Fe587       O596   1.987       .  S
O588        C595   1.267       .  A
O589        C603   1.267       .  A
O590        C595   1.266       .  A
O591        C594   1.266       .  A
O592        C604   1.267       .  A
O593        C606   1.267       .  A
C594        O599   1.267       .  A
C594        C800   1.434       .  S
C595        C793   1.434       .  S
O597        C600   1.267       .  A
O598        C600   1.266       .  A
C600        C684   1.435       .  S
O601        C606   1.266       .  A
O602        C604   1.267       .  A
C603        O605   1.267       .  A
C603        C716   1.436       .  S
C604        C717   1.436       .  S
C606        C688   1.435       .  S
Fe607       O623   2.062       .  S
Fe607       O613   2.059       .  S
Fe607       O620   2.062       .  S
Fe607       O612   2.059       .  S
Fe607       O618   1.981       .  S
Fe608       O611   2.063       .  S
Fe608       O615   2.067       .  S
Fe608       O619   2.067       .  S
Fe608       O624   2.063       .  S
Fe608       O618   1.984       .  S
Fe609       O627   2.068       .  S
Fe609       O614   2.068       .  S
Fe609       O621   2.070       .  S
Fe609       O610   2.070       .  S
Fe609       O618   1.987       .  S
O610        C617   1.267       .  A
O611        C625   1.267       .  A
O612        C617   1.266       .  A
O613        C616   1.266       .  A
O614        C626   1.267       .  A
O615        C628   1.267       .  A
C616        O621   1.267       .  A
C616        C781   1.435       .  S
C617        C780   1.435       .  S
O619        C622   1.267       .  A
O620        C622   1.266       .  A
C622        C681   1.435       .  S
O623        C628   1.266       .  A
O624        C626   1.267       .  A
C625        O627   1.267       .  A
C625        C700   1.436       .  S
C626        C704   1.436       .  S
C628        C685   1.435       .  S
Fe629       O645   2.062       .  S
Fe629       O635   2.060       .  S
Fe630       O641   2.066   1_554  S
Fe630       O646   2.062   1_554  S
Fe630       O640   1.984       .  S
Fe631       O636   2.068       .  S
Fe631       O632   2.070       .  S
Fe631       O640   1.987   1_556  S
O632        C639   1.267       .  A
O633        C647   1.267       .  A
O634        C639   1.266       .  A
O635        C638   1.266       .  A
O636        C648   1.267       .  A
O637        C650   1.267       .  A
C638        O643   1.268       .  A
C638        C709   1.435       .  S
C639        C708   1.435       .  S
O641        C644   1.267       .  A
O642        C644   1.266       .  A
C644        C761   1.434       .  S
O645        C650   1.266       .  A
O646        C648   1.267       .  A
C647        O649   1.267       .  A
C647        C680   1.435       .  S
C648        C676   1.435       .  S
C650        C765   1.434       .  S
Fe651       O667   2.062       .  S
Fe651       O657   2.060       .  S
Fe651       O664   2.062       .  S
Fe651       O656   2.060       .  S
Fe651       O662   1.981       .  S
Fe652       O655   2.062       .  S
Fe652       O659   2.066       .  S
Fe652       O663   2.066       .  S
Fe652       O668   2.062       .  S
Fe652       O662   1.984       .  S
Fe653       O671   2.068       .  S
Fe653       O658   2.068       .  S
Fe653       O665   2.070       .  S
Fe653       O654   2.070       .  S
Fe653       O662   1.987       .  S
O654        C661   1.267       .  A
O655        C669   1.267       .  A
O656        C661   1.266       .  A
O657        C660   1.266       .  A
O658        C670   1.267       .  A
O659        C672   1.267       .  A
C660        O665   1.268       .  A
C660        C693   1.435       .  S
C661        C692   1.435       .  S
O663        C666   1.267       .  A
O664        C666   1.266       .  A
C666        C753   1.434       .  S
O667        C672   1.266       .  A
O668        C670   1.267       .  A
C669        O671   1.267       .  A
C669        C677   1.435       .  S
C670        C673   1.435       .  S
C672        C757   1.434       .  S
C673        C674   1.206       .  T
C674        C675   1.412       .  S
C675        C676   1.206       .  T
C677        C678   1.206       .  T
C678        C679   1.412       .  S
C679        C680   1.206       .  T
C681        C682   1.205       .  T
C682        C683   1.411       .  S
C683        C684   1.205       .  T
C685        C686   1.205       .  T
C686        C687   1.411       .  S
C687        C688   1.205       .  T
C689        C690   1.206       .  T
C690        C691   1.412   1_545  S
C691        C692   1.206       .  T
C693        C694   1.206       .  T
C694        C695   1.412   1_565  S
C695        C696   1.206       .  T
C697        C698   1.206       .  T
C698        C699   1.412       .  S
C699        C700   1.206       .  T
C701        C702   1.206       .  T
C702        C703   1.412       .  S
C703        C704   1.206       .  T
C705        C706   1.206       .  T
C706        C707   1.412   1_655  S
C707        C708   1.206       .  T
C709        C710   1.206       .  T
C710        C711   1.412   1_455  S
C711        C712   1.206       .  T
C713        C714   1.206       .  T
C714        C715   1.412       .  S
C715        C716   1.206       .  T
C717        C718   1.206       .  T
C718        C719   1.412       .  S
C719        C720   1.206       .  T
C721        C722   1.205       .  T
C722        C723   1.411       .  S
C723        C724   1.205       .  T
C725        C726   1.205       .  T
C726        C727   1.411       .  S
C727        C728   1.205       .  T
C729        C730   1.206       .  T
C730        C731   1.412       .  S
C731        C732   1.206       .  T
C733        C734   1.206       .  T
C734        C735   1.412       .  S
C735        C736   1.206       .  T
C737        C738   1.205       .  T
C738        C739   1.411       .  S
C739        C740   1.205       .  T
C741        C742   1.205       .  T
C742        C743   1.411       .  S
C743        C744   1.205       .  T
C745        C746   1.206       .  T
C746        C747   1.412   1_565  S
C747        C748   1.206       .  T
C749        C750   1.206       .  T
C750        C751   1.412   1_545  S
C751        C752   1.206       .  T
C753        C754   1.205       .  T
C754        C755   1.411       .  S
C755        C756   1.205       .  T
C757        C758   1.205       .  T
C758        C759   1.411       .  S
C759        C760   1.205       .  T
C761        C762   1.205       .  T
C762        C763   1.411       .  S
C763        C764   1.205       .  T
C765        C766   1.205       .  T
C766        C767   1.411       .  S
C767        C768   1.205       .  T
C769        C770   1.206       .  T
C770        C771   1.412   1_455  S
C771        C772   1.206       .  T
C773        C774   1.206       .  T
C774        C775   1.412   1_655  S
C775        C776   1.206       .  T
C777        C778   1.205       .  T
C778        C779   1.411       .  S
C779        C780   1.205       .  T
C781        C782   1.205       .  T
C782        C783   1.411       .  S
C783        C784   1.205       .  T
C785        C786   1.206       .  T
C786        C787   1.412       .  S
C787        C788   1.206       .  T
C789        C790   1.206       .  T
C790        C791   1.412       .  S
C791        C792   1.206       .  T
C793        C794   1.205       .  T
C794        C795   1.411       .  S
C795        C796   1.205       .  T
C797        C798   1.205       .  T
C798        C799   1.411       .  S
C799        C800   1.205       .  T
C801        C802   1.205       .  T
C802        C803   1.411       .  S
C803        C804   1.205       .  T
C805        C806   1.205       .  T
C806        C807   1.411       .  S
C807        C808   1.205       .  T
C809        C810   1.206       .  T
C810        C811   1.412       .  S
C811        C812   1.206       .  T
C813        C814   1.206       .  T
C814        C815   1.412       .  S
C815        C816   1.206       .  T
