geometry optimzed in LAMMPS
_audit_creation_date              2020-11-30 
_audit_creation_method            'lammps2cif' 
_symmetry_space_group_name_H-M    'P1' 
_symmetry_Int_Tables_number       1 
_symmetry_cell_setting            triclinic 
loop_ 
_symmetry_equiv_pos_as_xyz 
  x,y,z 
_cell_length_a                    40.02440238 
_cell_length_b                    39.9559969966141 
_cell_length_c                    29.234592678873295 
_cell_angle_alpha                 90.31272063094423 
_cell_angle_beta                  89.76123142630614 
_cell_angle_gamma                 120.31054507891803 
loop_ 
_atom_site_label 
_atom_site_type_symbol 
_atom_site_fract_x 
_atom_site_fract_y 
_atom_site_fract_z 
_atom_site_charge 
O1          O  0.20248921  0.84055147  0.10182874    -0.85100
O2          O  0.14205494  0.77627558  0.13823642    -0.82100
C3          C  0.12403826  0.74154278  0.15085039     0.98400
O4          O  0.14028708  0.72819072  0.17614060    -0.82200
O5          O  0.19319338  0.72225239  0.12287714    -0.84800
C6          C  0.22409563  0.72846362  0.10431113     1.02900
O7          O  0.25402346  0.76189631  0.10696400    -0.77600
O8          O  0.23024969  0.81013937  0.07147821    -0.77800
C9          C  0.20976624  0.82558599  0.06739674     1.02800
O10         O  0.23501776  0.86169199  0.19543760    -0.85100
O11         O  0.17220562  0.79968268  0.23127942    -0.82200
C12         C  0.18733722  0.78663866  0.25880601     0.98400
O13         O  0.20128267  0.76655100  0.24450779    -0.82200
O14         O  0.25084933  0.75311294  0.19503638    -0.84800
C15         C  0.28380532  0.78394612  0.19719150     1.02900
O16         O  0.28853298  0.81529022  0.18112673    -0.77600
O17         O  0.27455422  0.86951931  0.13956448    -0.77800
C18         C  0.26638295  0.88245285  0.17504136     1.02800
Cr19       Cr  0.18986262  0.81776502  0.16610946     1.93700
Cr20       Cr  0.19733123  0.74581941  0.18308544     1.93200
Cr21       Cr  0.25867807  0.81306582  0.12685585     1.39100
O22         O  0.21505064  0.79213371  0.15883821    -1.22900
O23         O  0.20739542  0.83899519  0.60070748    -0.85100
O24         O  0.14378970  0.77608801  0.63198035    -0.82100
C25         C  0.12309707  0.74208331  0.64600277     0.98400
O26         O  0.13538873  0.72908720  0.67703761    -0.82200
O27         O  0.19457087  0.72388633  0.63735898    -0.84800
C28         C  0.22696873  0.73051872  0.62317355     1.02900
O29         O  0.25724764  0.76272908  0.63192393    -0.77600
O30         O  0.24597622  0.81574248  0.58616183    -0.77800
C31         C  0.22517235  0.82901819  0.57260894     1.02800
O32         O  0.22723320  0.86496109  0.69618943    -0.85100
O33         O  0.16286075  0.80325574  0.72734347    -0.82200
C34         C  0.17044434  0.78763107  0.76046812     0.98400
O35         O  0.18565099  0.76704805  0.75391137    -0.82200
O36         O  0.24099410  0.75221389  0.71924104    -0.84800
C37         C  0.27288591  0.78275173  0.72810374     1.02900
O38         O  0.28043859  0.81442808  0.71075952    -0.77600
O39         O  0.27806099  0.87051046  0.66104570    -0.77800
C40         C  0.26257905  0.88428487  0.68701905     1.02800
Cr41       Cr  0.18740354  0.81882547  0.66441171     1.93700
Cr42       Cr  0.19086142  0.74685934  0.69491619     1.93200
Cr43       Cr  0.26153787  0.81435106  0.64904528     1.39100
O44         O  0.21312304  0.79358944  0.66944742    -1.22900
O45         O  0.62195228  0.83528575  0.40715749    -0.85100
O46         O  0.62428474  0.77319116  0.37628795    -0.82100
C47         C  0.61417527  0.74105758  0.35807128     0.98400
O48         O  0.59424296  0.73127487  0.32169417    -0.82200
O49         O  0.52388253  0.71873626  0.35553327    -0.84800
C50         C  0.49668623  0.72396551  0.36803807     1.02900
O51         O  0.49893045  0.75646938  0.36214229    -0.77600
O52         O  0.55889340  0.80632217  0.41588462    -0.77800
C53         C  0.59223659  0.82086760  0.43275157     1.02800
O54         O  0.63388943  0.86391996  0.31311256    -0.85100
O55         O  0.64127592  0.80488119  0.28152721    -0.82200
C56         C  0.62125574  0.79318656  0.24495189     0.98400
O57         O  0.58491920  0.77263538  0.24664454    -0.82200
O58         O  0.51089045  0.75144118  0.27545349    -0.84800
C59         C  0.50785385  0.78124439  0.26964738     1.02900
O60         O  0.53092027  0.81253646  0.28926386    -0.77600
O61         O  0.58600875  0.86632423  0.34627681    -0.77800
C62         C  0.61640477  0.88181216  0.32204807     1.02800
Cr63       Cr  0.62661829  0.81731684  0.34367154     1.93700
Cr64       Cr  0.55531269  0.74692926  0.30201602     1.93200
Cr65       Cr  0.54624046  0.80937258  0.35206906     1.39100
O66         O  0.57627076  0.79147123  0.33249277    -1.22900
O67         O  0.64145972  0.84778689  0.90425678    -0.85100
O68         O  0.63345690  0.78254712  0.86695280    -0.82100
C69         C  0.61572306  0.74747562  0.85554854     0.98400
O70         O  0.58544588  0.73364879  0.83113114    -0.82200
O71         O  0.52948354  0.72926141  0.88822519    -0.84800
C72         C  0.50590815  0.73588827  0.90883235     1.02900
O73         O  0.51033780  0.76962686  0.90784954    -0.77600
O74         O  0.58519834  0.81760518  0.93913768    -0.77800
C75         C  0.62147501  0.83350199  0.94045192     1.02800
O76         O  0.62510965  0.86691621  0.81192018    -0.85100
O77         O  0.62381787  0.80427503  0.77538184    -0.82200
C78         C  0.59470805  0.78968393  0.74898482     0.98400
O79         O  0.56092119  0.77120500  0.76479401    -0.82200
O80         O  0.50068646  0.76014355  0.81921713    -0.84800
C81         C  0.49871104  0.79095424  0.81905743     1.02900
O82         O  0.52596427  0.82228349  0.83490641    -0.77600
O83         O  0.59725173  0.87662470  0.87064253    -0.77800
C84         C  0.61555491  0.88819005  0.83297026     1.02800
Cr85       Cr  0.62732302  0.82371711  0.84038485     1.93700
Cr86       Cr  0.54654579  0.75199315  0.82733657     1.93200
Cr87       Cr  0.55665250  0.82030499  0.88596143     1.39100
O88         O  0.57685804  0.79860286  0.85082190    -1.22900
O89         O  0.15970886  0.37937153  0.92918399    -0.85100
O90         O  0.22190800  0.37591692  0.95614400    -0.82100
C91         C  0.25472178  0.38586927  0.97189701     0.98400
O92         O  0.26701618  0.40732836  0.00717816    -0.82200
O93         O  0.28045699  0.47684993  0.97115843    -0.84800
C94         C  0.27649741  0.50498422  0.95980223     1.02900
O95         O  0.24452750  0.50377127  0.96680911    -0.77600
O96         O  0.19101257  0.44223618  0.91718607    -0.77800
C97         C  0.17392660  0.40809194  0.90202185     1.02800
O98         O  0.13655321  0.37264572  0.02679923    -0.85100
O99         O  0.19610694  0.36410898  0.05211279    -0.82200
C100        C  0.20933738  0.38558502  0.08740329     0.98400
O101        O  0.23039235  0.42179039  0.08405376    -0.82200
O102        O  0.25236430  0.49539151  0.05240890    -0.84800
C103        C  0.22290857  0.49884555  0.05949473     1.02900
O104        O  0.19080088  0.47411313  0.04326506    -0.77600
O105        O  0.13407881  0.41848423  0.98933182    -0.77800
C106        C  0.11899130  0.39015190  0.01676174     1.02800
Cr107      Cr  0.18053687  0.37657401  0.99158980     1.93700
Cr108      Cr  0.25421044  0.44852078  0.02691576     1.93200
Cr109      Cr  0.19110842  0.45739441  0.98042632     1.39100
O110        O  0.20855463  0.42728060  0.99943745    -1.22900
O111        O  0.15461800  0.36235352  0.42860464    -0.85100
O112        O  0.21616156  0.36420663  0.47001362    -0.82100
C113        C  0.25058464  0.38045803  0.48378295     0.98400
O114        O  0.26477051  0.41125413  0.50745347    -0.82200
O115        O  0.27517367  0.46988303  0.45099576    -0.84800
C116        C  0.27033297  0.49435994  0.42982068     1.02900
O117        O  0.23779158  0.49238419  0.43090704    -0.77600
O118        O  0.18777604  0.41977179  0.39648267    -0.77800
C119        C  0.17019127  0.38340750  0.39349727     1.02800
O120        O  0.13287811  0.37849588  0.52008904    -0.85100
O121        O  0.19159724  0.37485918  0.55962817    -0.82200
C122        C  0.20616276  0.40365487  0.58668205     0.98400
O123        O  0.22739019  0.43753047  0.57204042    -0.82200
O124        O  0.24510474  0.50031488  0.51974165    -0.84800
C125        C  0.21524671  0.50374683  0.52094920     1.02900
O126        O  0.18402320  0.47846512  0.50267147    -0.77600
O127        O  0.12875340  0.41000089  0.46182872    -0.77800
C128        C  0.11446007  0.39071405  0.49807685     1.02800
Cr129      Cr  0.17573078  0.37374563  0.49378976     1.93700
Cr130      Cr  0.24971891  0.45242186  0.51076899     1.93200
Cr131      Cr  0.18563858  0.44804908  0.45030819     1.39100
O132        O  0.20383600  0.42455462  0.48504106    -1.22900
O133        O  0.35340816  0.16174050  0.38573894    -0.85100
O134        O  0.36033292  0.22805465  0.35496984    -0.82100
C135        C  0.37835769  0.26405164  0.34912955     0.98400
O136        O  0.40958756  0.28040813  0.32618509    -0.82200
O137        O  0.46399932  0.28214552  0.38184892    -0.84800
C138        C  0.48705644  0.27464633  0.40167502     1.02900
O139        O  0.48392184  0.24169256  0.39627392    -0.77600
O140        O  0.40851902  0.18940364  0.42360882    -0.77800
C141        C  0.37208410  0.17143580  0.42337629     1.02800
O142        O  0.37388175  0.14875625  0.29194812    -0.85100
O143        O  0.37472301  0.21299145  0.26088620    -0.82200
C144        C  0.40484935  0.23095225  0.23617519     0.98400
O145        O  0.43778024  0.24935590  0.25421440    -0.82200
O146        O  0.49651521  0.25713934  0.30846555    -0.84800
C147        C  0.49828199  0.22631837  0.30401104     1.02900
O148        O  0.47090073  0.19424398  0.31761824    -0.77600
O149        O  0.40018627  0.13709578  0.35026536    -0.77800
C150        C  0.38275539  0.12676134  0.31218267     1.02800
Cr151      Cr  0.36923324  0.18969502  0.32420965     1.93700
Cr152      Cr  0.44951469  0.26364013  0.31884021     1.93200
Cr153      Cr  0.43916276  0.19223695  0.36974672     1.39100
O154        O  0.41915967  0.21533270  0.33740851    -1.22900
O155        O  0.37737182  0.18441789  0.89305525    -0.85100
O156        O  0.37400332  0.24302035  0.85339975    -0.82100
C157        C  0.38209399  0.27233737  0.83017870     0.98400
O158        O  0.40035369  0.27834283  0.79276670    -0.82200
O159        O  0.47274577  0.29862146  0.82857998    -0.84800
C160        C  0.49992485  0.29512389  0.84521007     1.02900
O161        O  0.49846591  0.26262596  0.84470855    -0.77600
O162        O  0.44045099  0.21504681  0.90155628    -0.77800
C163        C  0.40710675  0.20087250  0.91842154     1.02800
O164        O  0.36476370  0.14777686  0.80365881    -0.85100
O165        O  0.35596796  0.20345329  0.76346890    -0.82200
C166        C  0.37518395  0.20964674  0.72652416     0.98400
O167        O  0.41155775  0.23044541  0.72651495    -0.82200
O168        O  0.48756678  0.26005475  0.75637606    -0.84800
C169        C  0.49219923  0.23094884  0.75583472     1.02900
O170        O  0.46894746  0.20089829  0.77716804    -0.77600
O171        O  0.41495105  0.15033274  0.83713522    -0.77800
C172        C  0.38322916  0.13162287  0.81573449     1.02800
Cr173      Cr  0.37177551  0.19671298  0.82740518     1.93700
Cr174      Cr  0.44121765  0.26367075  0.77848891     1.93200
Cr175      Cr  0.45317835  0.20802570  0.83850437     1.39100
O176        O  0.42196227  0.22262721  0.81505825    -1.22900
O177        O  0.79153837  0.17174707  0.09858016    -0.85100
O178        O  0.85338211  0.23444286  0.13372870    -0.82100
C179        C  0.87483968  0.26563423  0.15414390     0.98400
O180        O  0.86291798  0.27375956  0.19043591    -0.82200
O181        O  0.80857975  0.28830464  0.15000541    -0.84800
C182        C  0.77731247  0.28309246  0.13307767     1.02900
O183        O  0.74620820  0.25047617  0.13683052    -0.77600
O184        O  0.75661640  0.19912416  0.08695591    -0.77800
C185        C  0.77734591  0.18615844  0.07177856     1.02800
O186        O  0.76964808  0.14154358  0.19096648    -0.85100
O187        O  0.83371314  0.20133969  0.22746769    -0.82200
C188        C  0.81949577  0.20870696  0.26257482     0.98400
O189        O  0.80452959  0.22975112  0.25938267    -0.82200
O190        O  0.75688072  0.25484479  0.22525697    -0.84800
C191        C  0.72359504  0.22515165  0.22966169     1.02900
O192        O  0.71608449  0.19392815  0.21060334    -0.77600
O193        O  0.71971641  0.13957470  0.15747980    -0.77800
C194        C  0.73444287  0.12346769  0.18060030     1.02800
Cr195      Cr  0.81030625  0.18926413  0.16340067     1.93700
Cr196      Cr  0.80691712  0.25837741  0.20411159     1.93200
Cr197      Cr  0.73800615  0.19672658  0.14951204     1.39100
O198        O  0.78488934  0.21446012  0.17215219    -1.22900
O199        O  0.79841910  0.16760788  0.60501764    -0.85100
O200        O  0.85791993  0.23536984  0.63349872    -0.82100
C201        C  0.87615424  0.27056508  0.64452148     0.98400
O202        O  0.86233716  0.28330228  0.67442002    -0.82200
O203        O  0.80668205  0.28531376  0.62236685    -0.84800
C204        C  0.77500823  0.27798240  0.60514359     1.02900
O205        O  0.74530357  0.24464089  0.61022063    -0.77600
O206        O  0.76471809  0.19185077  0.57541139    -0.77800
C207        C  0.78512212  0.17629459  0.57049090     1.02800
O208        O  0.77124518  0.15035365  0.70097197    -0.85100
O209        O  0.83462241  0.21552750  0.73032108    -0.82200
C210        C  0.82177553  0.23013038  0.75930386     0.98400
O211        O  0.80515661  0.24807715  0.74642989    -0.82200
O212        O  0.75272092  0.25929360  0.69811897    -0.84800
C213        C  0.72000189  0.22874135  0.70324076     1.02900
O214        O  0.71486919  0.19655635  0.68942283    -0.77600
O215        O  0.72610341  0.13937292  0.65128308    -0.77800
C216        C  0.73765314  0.12877363  0.68575095     1.02800
Cr217      Cr  0.81362581  0.19394773  0.66712917     1.93700
Cr218      Cr  0.80545429  0.26539163  0.68383602     1.93200
Cr219      Cr  0.74129422  0.19465608  0.63348212     1.39100
O220        O  0.78676773  0.21782663  0.66170995    -1.22900
O221        O  0.83567895  0.64686382  0.94318523    -0.85100
O222        O  0.76950530  0.63934676  0.97606141    -0.82100
C223        C  0.73435998  0.62187082  0.98667492     0.98400
O224        O  0.71993949  0.59115327  0.01003868    -0.82200
O225        O  0.71969671  0.53585960  0.95471941    -0.84800
C226        C  0.72822136  0.51314205  0.93516359     1.02900
O227        O  0.76080277  0.51596057  0.94241579    -0.77600
O228        O  0.81432179  0.58912107  0.91211564    -0.77800
C229        C  0.82859304  0.62517956  0.90821048     1.02800
O230        O  0.85464439  0.63582195  0.03752941    -0.85100
O231        O  0.78901749  0.63085912  0.06997318    -0.82200
C232        C  0.77284001  0.60172023  0.09640477     0.98400
O233        O  0.75399306  0.56773695  0.08075005    -0.82200
O234        O  0.74420822  0.50586520  0.02948171    -0.84800
C235        C  0.77465758  0.50419094  0.03628183     1.02900
O236        O  0.80702084  0.53151861  0.02356916    -0.77600
O237        O  0.86478857  0.60056437  0.98831642    -0.77800
C238        C  0.87613227  0.62413455  0.02165717     1.02800
Cr239      Cr  0.81035222  0.63409844  0.00598035     1.93700
Cr240      Cr  0.73826752  0.55273764  0.01726804     1.93200
Cr241      Cr  0.81002129  0.56129914  0.96882387     1.39100
O242        O  0.78636856  0.58305575  0.99744370    -1.22900
O243        O  0.82541561  0.62643612  0.43648906    -0.85100
O244        O  0.76362999  0.62656196  0.47310284    -0.82100
C245        C  0.73347315  0.61782677  0.49515435     0.98400
O246        O  0.72646586  0.59870161  0.53192684    -0.82200
O247        O  0.70977736  0.52870160  0.49186487    -0.84800
C248        C  0.71364647  0.50156808  0.47552630     1.02900
O249        O  0.74610428  0.50289367  0.47755716    -0.77600
O250        O  0.79786457  0.56352711  0.42584315    -0.77800
C251        C  0.81191455  0.59721186  0.41006006     1.02800
O252        O  0.85789810  0.63701053  0.52790612    -0.85100
O253        O  0.79872222  0.64207231  0.56586660    -0.82200
C254        C  0.79159752  0.62125738  0.60151866     0.98400
O255        O  0.77120379  0.58489620  0.59918461    -0.82200
O256        O  0.74377004  0.51025304  0.56568668    -0.84800
C257        C  0.77327072  0.50645357  0.56830851     1.02900
O258        O  0.80424091  0.53119416  0.54995488    -0.77600
O259        O  0.85783323  0.58733856  0.49530107    -0.77800
C260        C  0.87504238  0.61893772  0.51757574     1.02800
Cr261      Cr  0.80940906  0.62928364  0.50162285     1.93700
Cr262      Cr  0.74105848  0.55754918  0.54497925     1.93200
Cr263      Cr  0.80053494  0.54859881  0.48867393     1.39100
O264        O  0.78398099  0.57864646  0.51139824    -1.22900
C265        C  0.82423943  0.65635428  0.79782042     0.30000
C266        C  0.80661841  0.66557816  0.76210550    -0.36300
C267        C  0.81259259  0.65618088  0.71734979     0.16000
C268        C  0.83445291  0.63898533  0.70873934     0.21800
C269        C  0.85241392  0.63040153  0.74407279    -0.34400
C270        C  0.84637862  0.63961195  0.78843754     0.15900
O271        O  0.81802875  0.65716744  0.84231622    -0.26500
C272        C  0.83674355  0.64101298  0.86141078     0.05700
C273        C  0.85475165  0.62958987  0.82933099    -0.31300
O274        O  0.83202896  0.62755795  0.66598927    -0.23200
C275        C  0.80894131  0.63804628  0.64611860    -0.03200
C276        C  0.79580521  0.65602186  0.67639799    -0.17600
H277        H  0.78756359  0.67684951  0.76894095     0.20400
H278        H  0.86783819  0.61509325  0.73766396     0.18800
H279        H  0.86857627  0.61266344  0.83508061     0.18700
H280        H  0.77410620  0.66402121  0.67029298     0.14600
C281        C  0.81032593  0.62265625  0.29485905     0.30000
C282        C  0.81523990  0.64628008  0.25665067    -0.36300
C283        C  0.79761001  0.62659242  0.21552561     0.16000
C284        C  0.77640815  0.58665529  0.21293929     0.21800
C285        C  0.77189013  0.56336466  0.25051036    -0.34400
C286        C  0.78983596  0.58281918  0.29082151     0.15900
O287        O  0.82267254  0.63409582  0.33732941    -0.26500
C288        C  0.81014268  0.60087813  0.35999452     0.05700
C289        C  0.78995579  0.56833898  0.33239576    -0.31300
O290        O  0.76358816  0.57375902  0.17164359    -0.23200
C291        C  0.77675336  0.60551821  0.14649488    -0.03200
C292        C  0.79809849  0.63955856  0.17191980    -0.17600
H293        H  0.83166723  0.67758170  0.25875461     0.20400
H294        H  0.75576068  0.53205574  0.24829124     0.18800
H295        H  0.77556249  0.53812248  0.34218282     0.18700
H296        H  0.81327688  0.66913317  0.15971942     0.14600
C297        C  0.75178806  0.34995348  0.58683664     0.30000
C298        C  0.72925773  0.36783950  0.59142642    -0.36300
C299        C  0.74968524  0.40870344  0.59040074     0.16000
C300        C  0.78938050  0.43005350  0.58557902     0.21800
C301        C  0.81164018  0.41230429  0.58073359    -0.34400
C302        C  0.79132837  0.37183557  0.58105431     0.15900
O303        O  0.73971238  0.31256864  0.59104717    -0.26500
C304        C  0.77203885  0.31077460  0.58746315     0.05700
C305        C  0.80480127  0.34682193  0.58037854    -0.31300
O306        O  0.80258660  0.46739839  0.58200991    -0.23200
C307        C  0.77119355  0.47064501  0.58433298    -0.03200
C308        C  0.73723580  0.43499337  0.59003316    -0.17600
H309        H  0.69819745  0.35117564  0.59569328     0.20400
H310        H  0.84270979  0.42896369  0.57659507     0.18800
H311        H  0.83474798  0.35404169  0.58010936     0.18700
H312        H  0.70769056  0.42899780  0.58933519     0.14600
C313        C  0.75607256  0.35302501  0.09279824     0.30000
C314        C  0.73273124  0.36906013  0.08237319    -0.36300
C315        C  0.75244730  0.40905210  0.07292446     0.16000
C316        C  0.79229358  0.43144454  0.07346656     0.21800
C317        C  0.81550697  0.41548275  0.08377614    -0.34400
C318        C  0.79588025  0.37573982  0.09331970     0.15900
O319        O  0.74399359  0.31676394  0.10468824    -0.26500
C320        C  0.77658708  0.31642971  0.11282636     0.05700
C321        C  0.80968389  0.35233123  0.10611702    -0.31300
O322        O  0.80491393  0.46780367  0.06241992    -0.23200
C323        C  0.77285872  0.46913329  0.05490966    -0.03200
C324        C  0.73919927  0.43338136  0.06098680    -0.17600
H325        H  0.70150167  0.35170250  0.08201071     0.20400
H326        H  0.84671809  0.43288848  0.08443813     0.18800
H327        H  0.83951600  0.36036967  0.11177291     0.18700
H328        H  0.70954891  0.42610642  0.05558365     0.14600
C329        C  0.80706556  0.19013874  0.95660018     0.30000
C330        C  0.81999861  0.18058590  0.91610169    -0.36300
C331        C  0.82297400  0.20247557  0.87675902     0.16000
C332        C  0.81439812  0.23187934  0.87795844     0.21800
C333        C  0.80199603  0.24147659  0.91795531    -0.34400
C334        C  0.79819424  0.21929556  0.95634316     0.15900
O335        O  0.80075632  0.17326885  0.99736586    -0.26500
C336        C  0.78695033  0.19171225  0.02250714     0.05700
C337        C  0.78482760  0.22038545  0.99841621    -0.31300
O338        O  0.81543571  0.24643210  0.83749750    -0.23200
C339        C  0.82487692  0.22650778  0.80909699    -0.03200
C340        C  0.83030663  0.19877363  0.83153942    -0.17600
H341        H  0.82599752  0.15706663  0.91494314     0.20400
H342        H  0.79414655  0.26372434  0.91858701     0.18800
H343        H  0.77540282  0.23993920  0.01059634     0.18700
H344        H  0.83571204  0.17717811  0.81642710     0.14600
C345        C  0.78215724  0.15880364  0.45310992     0.30000
C346        C  0.76442241  0.15110136  0.41012262    -0.36300
C347        C  0.78921231  0.16549368  0.37228511     0.16000
C348        C  0.82900789  0.18636311  0.37603459     0.21800
C349        C  0.84691016  0.19317253  0.41930353    -0.34400
C350        C  0.82192315  0.17848465  0.45747747     0.15900
O351        O  0.76418775  0.15304335  0.49267281    -0.26500
C352        C  0.79247917  0.16818882  0.52340341     0.05700
C353        C  0.82915589  0.18433246  0.50353118    -0.31300
O354        O  0.84610610  0.20220736  0.33655326    -0.23200
C355        C  0.81672011  0.19062159  0.30732111    -0.03200
C356        C  0.78088462  0.16777093  0.32787360    -0.17600
H357        H  0.73332300  0.13719598  0.40659874     0.20400
H358        H  0.87795077  0.21085621  0.42318309     0.18800
H359        H  0.85691548  0.20159153  0.52007494     0.18700
H360        H  0.75259109  0.15765725  0.31307692     0.14600
C361        C  0.64770095  0.25140722  0.72851280     0.30000
C362        C  0.63040723  0.27464257  0.73084768    -0.36300
C363        C  0.58957019  0.25459408  0.73172700     0.16000
C364        C  0.56766417  0.21465762  0.73088757     0.21800
C365        C  0.58482910  0.19168132  0.72918007    -0.34400
C366        C  0.62525211  0.21153165  0.72820282     0.15900
O367        O  0.68499256  0.26342611  0.72311455    -0.26500
C368        C  0.68605717  0.23061365  0.71969257     0.05700
C369        C  0.64970616  0.19762390  0.72323581    -0.31300
O370        O  0.53035823  0.20155846  0.73493187    -0.23200
C371        C  0.52772852  0.23331396  0.73807827    -0.03200
C372        C  0.56372232  0.26736835  0.73599411    -0.17600
H373        H  0.64743112  0.30591552  0.73130839     0.20400
H374        H  0.56779956  0.16043028  0.72856234     0.18800
H375        H  0.64206669  0.16770295  0.71886953     0.18700
H376        H  0.57010108  0.29683527  0.74125675     0.14600
C377        C  0.64074128  0.44469935  0.88705507     0.30000
C378        C  0.60180317  0.43008270  0.87576071    -0.36300
C379        C  0.57910456  0.38976132  0.87169750     0.16000
C380        C  0.59370300  0.36537218  0.87807400     0.21800
C381        C  0.63286015  0.38003842  0.88907792    -0.34400
C382        C  0.65568904  0.42055370  0.89309198     0.15900
O383        O  0.66575179  0.48101797  0.89724897    -0.26500
C384        C  0.69745490  0.48054684  0.90952768     0.05700
C385        C  0.69308981  0.44370330  0.90714033    -0.31300
O386        O  0.56728855  0.32862585  0.87166074    -0.23200
C387        C  0.53544576  0.32961274  0.86108911    -0.03200
C388        C  0.54106918  0.36688996  0.86084177    -0.17600
H389        H  0.58981701  0.44883729  0.87154352     0.20400
H390        H  0.64453895  0.36117712  0.89474673     0.18800
H391        H  0.71299536  0.43471662  0.91879394     0.18700
H392        H  0.52052807  0.37590189  0.85214301     0.14600
C393        C  0.59214011  0.24709698  0.27507302     0.30000
C394        C  0.63250962  0.26981924  0.26920471    -0.36300
C395        C  0.65245521  0.24933144  0.26454788     0.16000
C396        C  0.63381475  0.20935639  0.26524688     0.21800
C397        C  0.59373719  0.18680194  0.27103525    -0.34400
C398        C  0.57397411  0.20716782  0.27568256     0.15900
O399        O  0.56772114  0.25977829  0.28240638    -0.26500
C400        C  0.53360969  0.22736401  0.28747886     0.05700
C401        C  0.53593709  0.19392599  0.28325146    -0.31300
O402        O  0.65719223  0.19593470  0.25666881    -0.23200
C403        C  0.69154141  0.22757751  0.25072703    -0.03200
C404        C  0.69049445  0.26177042  0.25561484    -0.17600
H405        H  0.64728296  0.30114640  0.26827153     0.20400
H406        H  0.57890122  0.15545605  0.27136081     0.18800
H407        H  0.51315051  0.16411898  0.28777214     0.18700
H408        H  0.71355641  0.29116598  0.24937878     0.14600
C409        C  0.63969281  0.40759967  0.44786759     0.30000
C410        C  0.62212248  0.36722063  0.44230277    -0.36300
C411        C  0.58160728  0.34677988  0.43807450     0.16000
C412        C  0.56003452  0.36494257  0.43880547     0.21800
C413        C  0.57750556  0.40514637  0.44453010    -0.34400
C414        C  0.61784138  0.42545555  0.44888601     0.15900
O415        O  0.67693774  0.43232143  0.45433624    -0.26500
C416        C  0.67879579  0.46638568  0.45940171     0.05700
C417        C  0.64289228  0.46375924  0.45609547    -0.31300
O418        O  0.52319986  0.34099609  0.43002635    -0.23200
C419        C  0.52081843  0.30681858  0.42407563    -0.03200
C420        C  0.55625085  0.30857870  0.42908237    -0.17600
H421        H  0.63884803  0.35279386  0.44110192     0.20400
H422        H  0.56084909  0.41966830  0.44484605     0.18800
H423        H  0.63601921  0.48651336  0.46081936     0.18700
H424        H  0.56296459  0.28593186  0.42247849     0.14600
C425        C  0.33830093  0.17762403  0.53126114     0.30000
C426        C  0.33365203  0.19904684  0.56659931    -0.36300
C427        C  0.33930056  0.19036979  0.61150488     0.16000
C428        C  0.34846712  0.16216064  0.62096536     0.21800
C429        C  0.35208803  0.14005281  0.58578525    -0.34400
C430        C  0.34697138  0.14909833  0.54091927     0.15900
O431        O  0.34168161  0.18607985  0.48716951    -0.26500
C432        C  0.35223575  0.16243850  0.46807762     0.05700
C433        C  0.35599302  0.13884984  0.50006848    -0.31300
O434        O  0.35897059  0.16323895  0.66396131    -0.23200
C435        C  0.35593753  0.19203263  0.68278099    -0.03200
C436        C  0.34384587  0.21001178  0.65167159    -0.17600
H437        H  0.32933555  0.22310179  0.55935074     0.20400
H438        H  0.36163179  0.11962757  0.59264542     0.18800
H439        H  0.36833202  0.12047633  0.49475618     0.18700
H440        H  0.34286524  0.23635594  0.65662972     0.14600
C441        C  0.38349513  0.21450023  0.11792940     0.30000
C442        C  0.36115444  0.19716738  0.07835192    -0.36300
C443        C  0.38184365  0.20335439  0.03706437     0.16000
C444        C  0.42168967  0.22520109  0.03504197     0.21800
C445        C  0.44384796  0.24312919  0.07412569    -0.34400
C446        C  0.42326103  0.23689948  0.11510293     0.15900
O447        O  0.37079674  0.21015573  0.16078411    -0.26500
C448        C  0.40300819  0.23035668  0.18543882     0.05700
C449        C  0.43628334  0.24775573  0.15849914    -0.31300
O450        O  0.43535549  0.22633987  0.99363792    -0.23200
C451        C  0.40399292  0.20502443  0.96828667    -0.03200
C452        C  0.36974614  0.19010659  0.99343281    -0.17600
H453        H  0.32996973  0.17923686  0.07982548     0.20400
H454        H  0.47513463  0.25999766  0.07288312     0.18800
H455        H  0.46610966  0.26431807  0.16962315     0.18700
H456        H  0.34037077  0.17220622  0.98134544     0.14600
C457        C  0.95481505  0.31390934  0.56869082     0.30000
C458        C  0.97494579  0.31556754  0.52855940    -0.36300
C459        C  0.01396382  0.34472074  0.52672160     0.16000
C460        C  0.03223478  0.37026013  0.56235223     0.21800
C461        C  0.01172681  0.36930424  0.60221222    -0.34400
C462        C  0.97232965  0.34026618  0.60380994     0.15900
O463        O  0.91912844  0.28690410  0.57862550    -0.26500
C464        C  0.91300087  0.29600829  0.62045808     0.05700
C465        C  0.94500543  0.32935081  0.63783124    -0.31300
O466        O  0.07000227  0.39176425  0.55563534    -0.23200
C467        C  0.07569603  0.38059725  0.51462292    -0.03200
C468        C  0.04181718  0.35143492  0.49509777    -0.17600
H469        H  0.96145948  0.29444765  0.50134523     0.20400
H470        H  0.02589597  0.38871684  0.63076107     0.18800
H471        H  0.94830886  0.34232564  0.67132864     0.18700
H472        H  0.03876592  0.33510205  0.46416716     0.14600
C473        C  0.32071369  0.29309413  0.40745821     0.30000
C474        C  0.28695911  0.28658356  0.42978376    -0.36300
C475        C  0.28701656  0.31949084  0.44635613     0.16000
C476        C  0.31838966  0.35647533  0.44215187     0.21800
C477        C  0.35252470  0.36300029  0.41985533    -0.34400
C478        C  0.35222396  0.32987583  0.40234054     0.15900
O479        O  0.32600053  0.26620868  0.38859979    -0.26500
C480        C  0.36123960  0.28555823  0.37040413     0.05700
C481        C  0.37919832  0.32549819  0.37787860    -0.31300
O482        O  0.31077433  0.38316317  0.45760213    -0.23200
C483        C  0.27399932  0.36278414  0.47139021    -0.03200
C484        C  0.25793300  0.32309598  0.46524295    -0.17600
H485        H  0.26190422  0.25784615  0.43283236     0.20400
H486        H  0.37702126  0.39187100  0.41523125     0.18800
H487        H  0.40793254  0.34775057  0.36765880     0.18700
H488        H  0.22837977  0.30038868  0.47142226     0.14600
C489        C  0.19653865  0.41798399  0.70229697     0.30000
C490        C  0.20123578  0.44100399  0.74037994    -0.36300
C491        C  0.18698539  0.42141602  0.78148577     0.16000
C492        C  0.16945467  0.38171758  0.78573382     0.21800
C493        C  0.16423667  0.35827851  0.74693393    -0.34400
C494        C  0.17843727  0.37811027  0.70505930     0.15900
O495        O  0.20862327  0.43114523  0.66100126    -0.26500
C496        C  0.19824233  0.39961469  0.63604948     0.05700
C497        C  0.17901205  0.36542502  0.66141020    -0.31300
O498        O  0.16060770  0.37041269  0.82895681    -0.23200
C499        C  0.17244163  0.40358245  0.85182538    -0.03200
C500        C  0.18884670  0.43589415  0.82369529    -0.17600
H501        H  0.21558642  0.47226360  0.73819053     0.20400
H502        H  0.15073850  0.32712052  0.74930355     0.18800
H503        H  0.16742948  0.33592748  0.64956031     0.18700
H504        H  0.20208767  0.46615481  0.83332856     0.14600
C505        C  0.19594015  0.36626042  0.28606267     0.30000
C506        C  0.22314035  0.37422537  0.25128065    -0.36300
C507        C  0.20907646  0.36788028  0.20642690     0.16000
C508        C  0.17072689  0.35442809  0.19621113     0.21800
C509        C  0.14332866  0.34620841  0.23117897    -0.34400
C510        C  0.15746808  0.35262098  0.27633058     0.15900
O511        O  0.20415060  0.37530967  0.32953216    -0.26500
C512        C  0.17055356  0.36682561  0.34858842     0.05700
C513        C  0.14035814  0.35264496  0.31706193    -0.31300
O514        O  0.16502428  0.35530224  0.15181543    -0.23200
C515        C  0.20011919  0.36918284  0.13353913    -0.03200
C516        C  0.22857730  0.37770544  0.16598756    -0.17600
H517        H  0.25366102  0.38685221  0.25859705     0.20400
H518        H  0.11364393  0.33767421  0.22362063     0.18800
H519        H  0.11129036  0.34724699  0.32240538     0.18700
H520        H  0.25960278  0.39247473  0.16084686     0.14600
C521        C  0.95722313  0.31244433  0.08449732     0.30000
C522        C  0.97783423  0.31901281  0.04336798    -0.36300
C523        C  0.01806169  0.34345440  0.04598456     0.16000
C524        C  0.03691392  0.35978285  0.08652406     0.21800
C525        C  0.01614098  0.35359790  0.12777381    -0.34400
C526        C  0.97561453  0.32959361  0.12498865     0.15900
O527        O  0.91975820  0.28893320  0.08980838    -0.26500
C528        C  0.91349002  0.29125260  0.13416446     0.05700
C529        C  0.94721821  0.31639963  0.15793290    -0.31300
O530        O  0.07497598  0.37946858  0.08142868    -0.23200
C531        C  0.08038465  0.37645315  0.03684638    -0.03200
C532        C  0.04599425  0.35426298  0.01318138    -0.17600
H533        H  0.96353746  0.30536215  0.01168568     0.20400
H534        H  0.03058025  0.36596416  0.15980851     0.18800
H535        H  0.95058749  0.32239988  0.19425634     0.18700
H536        H  0.04228282  0.34574066  0.97754898     0.14600
C537        C  0.31785963  0.35377337  0.93499542     0.30000
C538        C  0.34723997  0.34445852  0.93826661    -0.36300
C539        C  0.35334172  0.32752984  0.89919436     0.16000
C540        C  0.33211401  0.32018546  0.85952390     0.21800
C541        C  0.30239211  0.32898283  0.85648103    -0.34400
C542        C  0.29626812  0.34583722  0.89554366     0.15900
O543        O  0.30692141  0.36956125  0.96739804    -0.26500
C544        C  0.27772649  0.37143483  0.94838876     0.05700
C545        C  0.26983497  0.35692166  0.90386751    -0.31300
O546        O  0.34139691  0.30231738  0.82806549    -0.23200
C547        C  0.36915093  0.29842412  0.84779897    -0.03200
C548        C  0.37741476  0.31323123  0.89213056    -0.17600
H549        H  0.36382557  0.34955476  0.96924094     0.20400
H550        H  0.28484786  0.32256161  0.82611643     0.18800
H551        H  0.24768451  0.35481912  0.88097347     0.18700
H552        H  0.39677932  0.31155647  0.91652311     0.14600
C553        C  0.65525632  0.98623836  0.80051234     0.30000
C554        C  0.67823992  0.02681954  0.80512208    -0.36300
C555        C  0.68848796  0.04849720  0.76428331     0.16000
C556        C  0.67653805  0.03170408  0.72166205     0.21800
C557        C  0.65374858  0.99113223  0.71702142    -0.34400
C558        C  0.64394136  0.96944901  0.75779614     0.15900
O559        O  0.64475902  0.96018067  0.83373726    -0.26500
C560        C  0.62650531  0.92616231  0.81189595     0.05700
C561        C  0.62537506  0.93041064  0.76468421    -0.31300
O562        O  0.69072602  0.05746933  0.68799054    -0.23200
C563        C  0.71245951  0.09129020  0.70935149    -0.03200
C564        C  0.71214297  0.08724949  0.75675083    -0.17600
H565        H  0.68852346  0.04049158  0.83809500     0.20400
H566        H  0.64525009  0.97731137  0.68384225     0.18800
H567        H  0.61418727  0.90781936  0.73889168     0.18700
H568        H  0.72791600  0.10967140  0.78194846     0.14600
C569        C  0.67042832  0.64733976  0.93690332     0.30000
C570        C  0.63912916  0.64272717  0.90992881    -0.36300
C571        C  0.64008351  0.67719238  0.89695411     0.16000
C572        C  0.66973089  0.71324916  0.91007997     0.21800
C573        C  0.70062285  0.71782775  0.93678035    -0.34400
C574        C  0.69975254  0.68377401  0.94936222     0.15900
O575        O  0.67713009  0.61971544  0.95081025    -0.26500
C576        C  0.71117974  0.63913140  0.97218063     0.05700
C577        C  0.72636870  0.67894507  0.97223748    -0.31300
O578        O  0.66508853  0.74160938  0.89559275    -0.23200
C579        C  0.63202573  0.72411962  0.87254801    -0.03200
C580        C  0.61496844  0.68379901  0.87189554    -0.17600
H581        H  0.61608289  0.61447321  0.89935766     0.20400
H582        H  0.72397611  0.74611440  0.94669039     0.18800
H583        H  0.75405652  0.70122701  0.98527542     0.18700
H584        H  0.58767640  0.66263942  0.85679656     0.14600
C585        C  0.43020831  0.64344486  0.93378888     0.30000
C586        C  0.41251135  0.60302977  0.93471031    -0.36300
C587        C  0.37211225  0.58257181  0.93704477     0.16000
C588        C  0.35028642  0.60042437  0.93877585     0.21800
C589        C  0.36809089  0.64113502  0.93767432    -0.34400
C590        C  0.40881335  0.66177978  0.93527801     0.15900
O591        O  0.46743776  0.66770967  0.92829931    -0.26500
C592        C  0.47046566  0.70236740  0.92660782     0.05700
C593        C  0.43485723  0.70055886  0.93101889    -0.31300
O594        O  0.31292082  0.57525996  0.94385221    -0.23200
C595        C  0.31106677  0.54099078  0.94498169    -0.03200
C596        C  0.34704787  0.54394897  0.94052402    -0.17600
H597        H  0.42913431  0.58850688  0.93333905     0.20400
H598        H  0.35144536  0.65564112  0.93874805     0.18800
H599        H  0.42871995  0.72386872  0.92737421     0.18700
H600        H  0.35401270  0.52112361  0.94286507     0.14600
C601        C  0.67170614  0.96996648  0.26606759     0.30000
C602        C  0.70413751  0.99749267  0.24199595    -0.36300
C603        C  0.70190083  0.02870899  0.22439980     0.16000
C604        C  0.66996276  0.03293831  0.22970756     0.21800
C605        C  0.63713540  0.00504889  0.25402094    -0.34400
C606        C  0.63945907  0.97358735  0.27211757     0.13500
O607        O  0.66788281  0.93827967  0.28432353    -0.26500
C608        C  0.63280793  0.92099241  0.30292232     0.05700
C609        C  0.61359539  0.94165181  0.29667348    -0.31300
O610        O  0.67566305  0.06605668  0.21229731    -0.23200
C611        C  0.71172168  0.08283190  0.19585657    -0.03200
C612        C  0.72911165  0.06070130  0.20247086    -0.17600
H613        H  0.72958951  0.99491583  0.23765961     0.20400
H614        H  0.61193280  0.00794693  0.25904815     0.18800
H615        H  0.58446321  0.93353482  0.30690574     0.18700
H616        H  0.75851448  0.06822496  0.19450204     0.14600
C617        C  0.64847365  0.69475575  0.43018774     0.30000
C618        C  0.66153092  0.68748739  0.47163038    -0.36300
C619        C  0.67747968  0.66318458  0.46892087     0.16000
C620        C  0.68110844  0.64796456  0.42799720     0.21800
C621        C  0.66747183  0.65469784  0.38676936    -0.34400
C622        C  0.65075802  0.67823885  0.38963017     0.15900
O623        O  0.63454507  0.71818771  0.42442330    -0.26500
C624        C  0.62703451  0.71610265  0.37972762     0.05700
C625        C  0.63633262  0.69144128  0.35637722    -0.31300
O626        O  0.69987476  0.62889904  0.43245224    -0.23200
C627        C  0.70758183  0.63089325  0.47701096    -0.03200
C628        C  0.69422205  0.65182783  0.50154007    -0.17600
H629        H  0.66010955  0.70052352  0.50352243     0.20400
H630        H  0.67048617  0.64309296  0.35454680     0.18800
H631        H  0.63464982  0.68574902  0.32000574     0.18700
H632        H  0.69853790  0.65969834  0.53737773     0.14600
C633        C  0.34216096  0.58750396  0.39929312     0.30000
C634        C  0.35886156  0.62782751  0.39414162    -0.36300
C635        C  0.39953977  0.64931505  0.39304848     0.16000
C636        C  0.42189274  0.63212489  0.39683668     0.21800
C637        C  0.40527043  0.59211455  0.40217447    -0.34400
C638        C  0.36489844  0.57075763  0.40286801     0.15900
O639        O  0.30499868  0.56194877  0.40427089    -0.26500
C640        C  0.30420669  0.52857228  0.41087706     0.05700
C641        C  0.34064388  0.53236648  0.40981107    -0.31300
O642        O  0.45900649  0.65678141  0.39161391    -0.23200
C643        C  0.46085905  0.69044194  0.38450976    -0.03200
C644        C  0.42475231  0.68778544  0.38545882    -0.17600
H645        H  0.34145723  0.64141135  0.39122662     0.20400
H646        H  0.42265860  0.57852694  0.40509979     0.18800
H647        H  0.34837042  0.51060778  0.41710698     0.18700
H648        H  0.41791307  0.71016161  0.37800197     0.14600
C649        C  0.57985263  0.79175117  0.63189509     0.30000
C650        C  0.55679748  0.78502835  0.59336865    -0.36300
C651        C  0.57647672  0.80088032  0.55251236     0.16000
C652        C  0.61627752  0.82165609  0.54905590     0.21800
C653        C  0.63961807  0.82857152  0.58810215    -0.34400
C654        C  0.61973192  0.81287800  0.62960761     0.15900
O655        O  0.56680356  0.78031200  0.67347876    -0.26500
C656        C  0.59844483  0.79414027  0.69896659     0.05700
C657        C  0.63251249  0.81476484  0.67361741    -0.31300
O658        O  0.62805501  0.83277688  0.50641695    -0.23200
C659        C  0.59511558  0.81915545  0.48293562    -0.03200
C660        C  0.56235395  0.79918349  0.51011824    -0.17600
H661        H  0.52556086  0.76876182  0.59522483     0.20400
H662        H  0.67086260  0.84503947  0.58630670     0.18800
H663        H  0.66203105  0.82973381  0.68591165     0.18700
H664        H  0.53230565  0.78443964  0.49980314     0.14600
C665        C  0.65554432  0.83269547  0.13636463     0.30000
C666        C  0.66390035  0.86024331  0.10156258    -0.36300
C667        C  0.65636650  0.84603057  0.05620479     0.16000
C668        C  0.64187519  0.80738120  0.04600697     0.21800
C669        C  0.63439578  0.78014490  0.08052612    -0.34400
C670        C  0.64153394  0.79422880  0.12563714     0.15900
O671        O  0.65414201  0.83823883  0.18097277    -0.26500
C672        C  0.63937274  0.80289986  0.19904637     0.05700
C673        C  0.63097919  0.77456422  0.16599143    -0.31300
O674        O  0.63103902  0.79904400  0.00289517    -0.23200
C675        C  0.63919260  0.83275367  0.98445280    -0.03200
C676        C  0.65506451  0.86311850  0.01610580    -0.17600
H677        H  0.67275864  0.89003598  0.10950415     0.20400
H678        H  0.62096336  0.74950711  0.07299458     0.18800
H679        H  0.61531674  0.74344115  0.17058923     0.18700
H680        H  0.66066174  0.89234750  0.01152735     0.14600
C681        C  0.96634932  0.64392742  0.56327809     0.30000
C682        C  0.99393044  0.63876946  0.58754556    -0.36300
C683        C  0.02821658  0.67293462  0.60058507     0.16000
C684        C  0.03481477  0.70930780  0.58954716     0.21800
C685        C  0.00745200  0.71441917  0.56574299    -0.34400
C686        C  0.97328245  0.68063069  0.55353454     0.15900
O687        O  0.93138843  0.61654950  0.54977450    -0.26500
C688        C  0.91599467  0.63632345  0.53153640     0.05700
C689        C  0.94083596  0.67619437  0.53323761    -0.31300
O690        O  0.06838896  0.73735627  0.60435541    -0.23200
C691        C  0.08392709  0.71930760  0.62597040    -0.03200
C692        C  0.06018041  0.67897103  0.62494508    -0.17600
H693        H  0.98871105  0.61027103  0.59641123     0.20400
H694        H  0.01223180  0.74295580  0.55796894     0.18800
H695        H  0.93515602  0.69874446  0.52254008     0.18700
H696        H  0.06587812  0.65742949  0.63926214     0.14600
C697        C  0.29386848  0.97196141  0.74485897     0.30000
C698        C  0.28847839  0.99927620  0.76877532    -0.36300
C699        C  0.32210327  0.03288934  0.78256615     0.16000
C700        C  0.35884563  0.03941697  0.77399353     0.21800
C701        C  0.36426509  0.01175236  0.75001015    -0.34400
C702        C  0.33033586  0.97800140  0.73556973     0.15900
O703        O  0.26611324  0.93894070  0.72834325    -0.26500
C704        C  0.28459850  0.92327111  0.70761010     0.05700
C705        C  0.32477778  0.94627015  0.71087801    -0.31300
O706        O  0.38608369  0.07445546  0.78740707    -0.23200
C707        C  0.36617884  0.09020625  0.80456072    -0.03200
C708        C  0.32639123  0.06554342  0.80239316    -0.17600
H709        H  0.25994293  0.99501622  0.77519625     0.20400
H710        H  0.39281291  0.01666657  0.74204750     0.18800
H711        H  0.34650416  0.94021361  0.69775095     0.18700
H712        H  0.30384513  0.07177406  0.81156335     0.14600
C713        C  0.40415921  0.76770943  0.79160259     0.30000
C714        C  0.36446174  0.74359730  0.78256868    -0.36300
C715        C  0.34348801  0.76254233  0.77468894     0.16000
C716        C  0.36053740  0.80239042  0.77571198     0.21800
C717        C  0.39993564  0.82638243  0.78551418    -0.34400
C718        C  0.42081423  0.80749281  0.79315265     0.15900
O719        O  0.42954152  0.75643451  0.79886378    -0.26500
C720        C  0.46280739  0.78951535  0.80498300     0.05700
C721        C  0.45901589  0.82215547  0.80199879    -0.31300
O722        O  0.33684556  0.81426049  0.76264543    -0.23200
C723        C  0.30393693  0.78170693  0.75343810    -0.03200
C724        C  0.30618224  0.74848497  0.76072437    -0.17600
H725        H  0.35115901  0.71244769  0.78052349     0.20400
H726        H  0.41361033  0.85759725  0.78554861     0.18800
H727        H  0.48109600  0.85222392  0.80639563     0.18700
H728        H  0.28474320  0.71876627  0.75283214     0.14600
C729        C  0.24054433  0.59702232  0.55913374     0.30000
C730        C  0.26517299  0.63671097  0.56883796    -0.36300
C731        C  0.24676097  0.65791116  0.57940148     0.16000
C732        C  0.20699727  0.64093592  0.58035882     0.21800
C733        C  0.18255874  0.60155206  0.57073888    -0.34400
C734        C  0.20084746  0.58055193  0.56018884     0.15900
O735        O  0.25114676  0.57180379  0.54702423    -0.26500
C736        C  0.21770389  0.53896772  0.54024735     0.05700
C737        C  0.18553330  0.54275451  0.54811638    -0.31300
O738        O  0.19558913  0.66507384  0.59328240    -0.23200
C739        C  0.22826048  0.69823816  0.60077462    -0.03200
C740        C  0.26127252  0.69575621  0.59245012    -0.17600
H741        H  0.29631304  0.65001989  0.56826766     0.20400
H742        H  0.15142539  0.58817796  0.57172624     0.18800
H743        H  0.15531672  0.52112211  0.54398299     0.18700
H744        H  0.29120777  0.71773754  0.59788955     0.14600
C745        C  0.96246433  0.67313221  0.08517546     0.30000
C746        C  0.98803348  0.70054435  0.11688947    -0.36300
C747        C  0.02412924  0.70312049  0.12168451     0.16000
C748        C  0.03457127  0.68020010  0.09722971     0.21800
C749        C  0.00892021  0.65277311  0.06511921    -0.34400
C750        C  0.97265126  0.65029682  0.06010406     0.15900
O751        O  0.92761000  0.66668287  0.07497594    -0.26500
C752        C  0.91492621  0.63941627  0.04259218     0.05700
C753        C  0.94179193  0.62802202  0.03191447    -0.31300
O754        O  0.07058789  0.68887068  0.10607910    -0.23200
C755        C  0.08310467  0.71756914  0.13680084    -0.03200
C756        C  0.05548904  0.72777682  0.14724862    -0.17600
H757        H  0.98052056  0.71901837  0.13599709     0.20400
H758        H  0.01689292  0.63512023  0.04496483     0.18800
H759        H  0.93903819  0.60665273  0.00700792     0.18700
H760        H  0.05871479  0.75113964  0.16908182     0.14600
C761        C  0.35300886  0.04568708  0.24050457     0.30000
C762        C  0.34170764  0.02502755  0.19885364    -0.36300
C763        C  0.32449112  0.98449342  0.20181343     0.16000
C764        C  0.31828062  0.96570922  0.24312714     0.21800
C765        C  0.33041347  0.98643086  0.28461975    -0.34400
C766        C  0.34817341  0.02694515  0.28159260     0.15900
O767        O  0.36672899  0.08322909  0.24595540    -0.26500
C768        C  0.37145967  0.08884531  0.29103214     0.05700
C769        C  0.36072350  0.05485553  0.31495309    -0.31300
O770        O  0.29838469  0.92763601  0.23862614    -0.23200
C771        C  0.29251996  0.92164654  0.19373778    -0.03200
C772        C  0.30824165  0.95604977  0.16900653    -0.17600
H773        H  0.34495855  0.03947039  0.16651563     0.20400
H774        H  0.32517637  0.97183748  0.31719656     0.18800
H775        H  0.35995068  0.05094132  0.35162927     0.18700
H776        H  0.30570232  0.95953967  0.13271675     0.14600
C777        C  0.35587412  0.76189357  0.22495584     0.30000
C778        C  0.37237160  0.73844081  0.23209563    -0.36300
C779        C  0.41306990  0.75796582  0.23451810     0.16000
C780        C  0.43569048  0.79770957  0.23048414     0.21800
C781        C  0.41929946  0.82094091  0.22321708    -0.34400
C782        C  0.37891398  0.80156038  0.22089776     0.15900
O783        O  0.31867206  0.75009838  0.21988188    -0.26500
C784        C  0.31819111  0.78282975  0.21281768     0.05700
C785        C  0.35487977  0.81560911  0.21339674    -0.31300
O786        O  0.47254905  0.81053255  0.23826110    -0.23200
C787        C  0.47402996  0.77870975  0.24694715    -0.03200
C788        C  0.43788335  0.74497598  0.24470209    -0.17600
H789        H  0.35479450  0.70734725  0.23592056     0.20400
H790        H  0.43682486  0.85212411  0.22051350     0.18800
H791        H  0.36285394  0.84534022  0.20669106     0.18700
H792        H  0.43050059  0.71584629  0.25399179     0.14600
C793        C  0.24599348  0.59420216  0.08002492     0.30000
C794        C  0.26828578  0.63491943  0.07674070    -0.36300
C795        C  0.24761012  0.65485077  0.07907161     0.16000
C796        C  0.20789582  0.63583988  0.08391213     0.21800
C797        C  0.18585220  0.59550770  0.08736021    -0.34400
C798        C  0.20643578  0.57585217  0.08583839     0.15900
O799        O  0.25832199  0.56924659  0.07478455    -0.26500
C800        C  0.22611348  0.53465585  0.07795652     0.05700
C801        C  0.19324084  0.53732475  0.08561002    -0.31300
O802        O  0.19452727  0.65965810  0.08892292    -0.23200
C803        C  0.22587976  0.69471024  0.08738724    -0.03200
C804        C  0.25988080  0.69361370  0.08086840    -0.17600
H805        H  0.29936645  0.64992388  0.07259428     0.20400
H806        H  0.15477383  0.58049283  0.09151100     0.18800
H807        H  0.16334330  0.51415173  0.08575533     0.18700
H808        H  0.28938877  0.71755674  0.08186874     0.14600
C809        C  0.16803856  0.79447019  0.96028639     0.30000
C810        C  0.15326293  0.76704849  0.92496977    -0.36300
C811        C  0.15560572  0.78154683  0.88097208     0.16000
C812        C  0.17115072  0.82048581  0.87193626     0.21800
C813        C  0.18542258  0.84810016  0.90772697    -0.34400
C814        C  0.18331797  0.83352260  0.95215075     0.15900
O815        O  0.17342528  0.78724966  0.00251247    -0.26500
C816        C  0.19183245  0.82183274  0.02255392     0.05700
C817        C  0.19882335  0.85197896  0.99299714    -0.31300
O818        O  0.17527893  0.82778717  0.82744896    -0.23200
C819        C  0.16205955  0.79299676  0.80814774    -0.03200
C820        C  0.14948318  0.76335412  0.83995423    -0.17600
H821        H  0.14311195  0.73671081  0.93102795     0.20400
H822        H  0.19946503  0.87887024  0.90107712     0.18800
H823        H  0.21593337  0.88283618  0.99940255     0.18700
H824        H  0.14070153  0.73327686  0.83379715     0.14600
C825        C  0.18676629  0.81213947  0.37477722     0.30000
C826        C  0.17467336  0.82213471  0.41549667    -0.36300
C827        C  0.19672311  0.82641199  0.45503745     0.16000
C828        C  0.22830817  0.82122675  0.45413095     0.21800
C829        C  0.24019682  0.81126531  0.41395862    -0.34400
C830        C  0.21821736  0.80677122  0.37507539     0.15900
O831        O  0.17069748  0.80608342  0.33356674    -0.26500
C832        C  0.19217865  0.79623825  0.30801310     0.05700
C833        C  0.22189216  0.79625007  0.33231523    -0.31300
O834        O  0.24331385  0.82386255  0.49476512    -0.23200
C835        C  0.22145834  0.83106664  0.52276124    -0.03200
C836        C  0.19196825  0.83317374  0.50001142    -0.17600
H837        H  0.14957042  0.82560697  0.41649993     0.20400
H838        H  0.26441951  0.80634841  0.41331074     0.18800
H839        H  0.24351769  0.78972390  0.31993164     0.18700
H840        H  0.16894436  0.83645428  0.51477647     0.14600
loop_ 
_geom_bond_atom_site_label_1 
_geom_bond_atom_site_label_2 
_geom_bond_distance 
_geom_bond_site_symmetry_2 
_ccdc_geom_bond_type 
O1          Cr19   2.040       .  S
O1            C9   1.274       .  A
O2          Cr19   1.967       .  S
O2            C3   1.255       .  A
C3            O4   1.270       .  A
C3          C755   1.479       .  S
O4          Cr20   2.032       .  S
O5          Cr20   1.959       .  S
O5            C6   1.254       .  A
C6            O7   1.269       .  A
C6          C803   1.469       .  S
O7          Cr21   2.039       .  S
O8          Cr21   1.951       .  S
O8            C9   1.257       .  A
C9          C816   1.467       .  S
O10         Cr19   1.969       .  S
O10          C18   1.252       .  A
O11         Cr19   2.035       .  S
O11          C12   1.270       .  A
C12          O13   1.256       .  A
C12         C832   1.475       .  S
O13         Cr20   1.947       .  S
O14         Cr20   2.042       .  S
O14          C15   1.273       .  A
C15          O16   1.261       .  A
C15         C784   1.474       .  S
O16         Cr21   1.965       .  S
O17         Cr21   2.043       .  S
O17          C18   1.269       .  A
C18         C771   1.479       .  S
Cr19         O22   1.774       .  S
Cr20         O22   1.765       .  S
Cr21         O22   1.773       .  S
O23         Cr41   2.028       .  S
O23          C31   1.272       .  A
O24         Cr41   1.962       .  S
O24          C25   1.252       .  A
C25          O26   1.266       .  A
C25         C691   1.480       .  S
O26         Cr42   2.030       .  S
O27         Cr42   1.953       .  S
O27          C28   1.254       .  A
C28          O29   1.271       .  A
C28         C739   1.467       .  S
O29         Cr43   2.041       .  S
O30         Cr43   1.954       .  S
O30          C31   1.258       .  A
C31         C835   1.472       .  S
O32         Cr41   1.957       .  S
O32          C40   1.251       .  A
O33         Cr41   2.029       .  S
O33          C34   1.273       .  A
C34          O35   1.259       .  A
C34         C819   1.472       .  S
O35         Cr42   1.955       .  S
O36         Cr42   2.038       .  S
O36          C37   1.270       .  A
C37          O38   1.253       .  A
C37         C723   1.468       .  S
O38         Cr43   1.959       .  S
O39         Cr43   2.023       .  S
O39          C40   1.265       .  A
C40         C704   1.474       .  S
Cr41         O44   1.774       .  S
Cr42         O44   1.779       .  S
Cr43         O44   1.781       .  S
O45         Cr63   2.028       .  S
O45          C53   1.270       .  A
O46         Cr63   1.969       .  S
O46          C47   1.251       .  A
C47          O48   1.268       .  A
C47         C624   1.479       .  S
O48         Cr64   2.036       .  S
O49         Cr64   1.968       .  S
O49          C50   1.260       .  A
C50          O51   1.268       .  A
C50         C643   1.465       .  S
O51         Cr65   2.025       .  S
O52         Cr65   1.956       .  S
O52          C53   1.258       .  A
C53         C659   1.477       .  S
O54         Cr63   1.954       .  S
O54          C62   1.253       .  A
O55         Cr63   2.041       .  S
O55          C56   1.276       .  A
C56          O57   1.259       .  A
C56         C672   1.480       .  S
O57         Cr64   1.963       .  S
O58         Cr64   2.033       .  S
O58          C59   1.269       .  A
C59          O60   1.255       .  A
C59         C787   1.467       .  S
O60         Cr65   1.963       .  S
O61         Cr65   2.021       .  S
O61          C62   1.266       .  A
C62         C608   1.471       .  S
Cr63         O66   1.771       .  S
Cr64         O66   1.774       .  S
Cr65         O66   1.772       .  S
O67         Cr85   2.042       .  S
O67          C75   1.274       .  A
O68         Cr85   1.947       .  S
O68          C69   1.254       .  A
C69          O70   1.269       .  A
C69         C579   1.472       .  S
O70         Cr86   2.032       .  S
O71         Cr86   1.960       .  S
O71          C72   1.253       .  A
C72          O73   1.268       .  A
C72         C592   1.470       .  S
O73         Cr87   2.040       .  S
O74         Cr87   1.968       .  S
O74          C75   1.258       .  A
C75         C675   1.479       .  S
O76         Cr85   1.962       .  S
O76          C84   1.252       .  A
O77         Cr85   2.027       .  S
O77          C78   1.269       .  A
C78          O79   1.256       .  A
C78         C656   1.472       .  S
O79         Cr86   1.956       .  S
O80         Cr86   2.035       .  S
O80          C81   1.273       .  A
C81          O82   1.261       .  A
C81         C720   1.469       .  S
O82         Cr87   1.964       .  S
O83         Cr87   2.054       .  S
O83          C84   1.273       .  A
C84         C560   1.487       .  S
Cr85         O88   1.770       .  S
Cr86         O88   1.767       .  S
Cr87         O88   1.776       .  S
O89        Cr107   2.036       .  S
O89          C97   1.272       .  A
O90        Cr107   1.961       .  S
O90          C91   1.253       .  A
C91          O92   1.269   1_556  A
C91         C544   1.476       .  S
O92        Cr108   2.035       .  S
O93        Cr108   1.961   1_556  S
O93          C94   1.258       .  A
C94          O95   1.272       .  A
C94         C595   1.471       .  S
O95        Cr109   2.041       .  S
O96        Cr109   1.942       .  S
O96          C97   1.257       .  A
C97         C499   1.475       .  S
O98        Cr107   1.973   1_554  S
O98         C106   1.253       .  A
O99        Cr107   2.025   1_554  S
O99         C100   1.272       .  A
C100        O101   1.258       .  A
C100        C515   1.465       .  S
O101       Cr108   1.954       .  S
O102       Cr108   2.047       .  S
O102        C103   1.270       .  A
C103        O104   1.253       .  A
C103        C800   1.470       .  S
O104       Cr109   1.953   1_554  S
O105       Cr109   2.028       .  S
O105        C106   1.267   1_556  A
C106        C531   1.475       .  S
Cr107       O110   1.766       .  S
Cr108       O110   1.773   1_554  S
Cr109       O110   1.761       .  S
O111       Cr129   2.042       .  S
O111        C119   1.275       .  A
O112       Cr129   1.964       .  S
O112        C113   1.257       .  A
C113        O114   1.267       .  A
C113        C483   1.473       .  S
O114       Cr130   2.019       .  S
O115       Cr130   1.965       .  S
O115        C116   1.255       .  A
C116        O117   1.265       .  A
C116        C640   1.465       .  S
O117       Cr131   2.021       .  S
O118       Cr131   1.959       .  S
O118        C119   1.257       .  A
C119        C512   1.471       .  S
O120       Cr129   1.971       .  S
O120        C128   1.252       .  A
O121       Cr129   2.023       .  S
O121        C122   1.267       .  A
C122        O123   1.257       .  A
C122        C496   1.469       .  S
O123       Cr130   1.955       .  S
O124       Cr130   2.029       .  S
O124        C125   1.270       .  A
C125        O126   1.262       .  A
C125        C736   1.470       .  S
O126       Cr131   1.970       .  S
O127       Cr131   2.028       .  S
O127        C128   1.266       .  A
C128        C467   1.472       .  S
Cr129       O132   1.775       .  S
Cr130       O132   1.765       .  S
Cr131       O132   1.775       .  S
O133       Cr151   2.045       .  S
O133        C141   1.276       .  A
O134       Cr151   1.954       .  S
O134        C135   1.254       .  A
C135        O136   1.270       .  A
C135        C480   1.476       .  S
O136       Cr152   2.031       .  S
O137       Cr152   1.959       .  S
O137        C138   1.250       .  A
C138        O139   1.267       .  A
C138        C419   1.467       .  S
O139       Cr153   2.034       .  S
O140       Cr153   1.960       .  S
O140        C141   1.259       .  A
C141        C432   1.475       .  S
O142       Cr151   1.972       .  S
O142        C150   1.253       .  A
O143       Cr151   2.037       .  S
O143        C144   1.271       .  A
C144        O145   1.257       .  A
C144        C448   1.485       .  S
O145       Cr152   1.960       .  S
O146       Cr152   2.046       .  S
O146        C147   1.275       .  A
C147        O148   1.259       .  A
C147        C400   1.473       .  S
O148       Cr153   1.956       .  S
O149       Cr153   2.034       .  S
O149        C150   1.268       .  A
C150        C768   1.477       .  S
Cr151       O154   1.768       .  S
Cr152       O154   1.771       .  S
Cr153       O154   1.774       .  S
O155       Cr173   2.025       .  S
O155        C163   1.269       .  A
O156       Cr173   1.956       .  S
O156        C157   1.250       .  A
C157        O158   1.268       .  A
C157        C547   1.469       .  S
O158       Cr174   2.038       .  S
O159       Cr174   1.975       .  S
O159        C160   1.264       .  A
C160        O161   1.270       .  A
C160        C387   1.469       .  S
O161       Cr175   2.021       .  S
O162       Cr175   1.966       .  S
O162        C163   1.257       .  A
C163        C451   1.478       .  S
O164       Cr173   1.954       .  S
O164        C172   1.254       .  A
O165       Cr173   2.038       .  S
O165        C166   1.274       .  A
C166        O167   1.261       .  A
C166        C435   1.475       .  S
O167       Cr174   1.970       .  S
O168       Cr174   2.035       .  S
O168        C169   1.267       .  A
C169        O170   1.254       .  A
C169        C371   1.469       .  S
O170       Cr175   1.965       .  S
O171       Cr175   2.024       .  S
O171        C172   1.267       .  A
C172        C707   1.472       .  S
Cr173       O176   1.771       .  S
Cr174       O176   1.778       .  S
Cr175       O176   1.766       .  S
O177       Cr195   2.028       .  S
O177        C185   1.268       .  A
O178       Cr195   1.961       .  S
O178        C179   1.250       .  A
C179        O180   1.268       .  A
C179        C528   1.477       .  S
O180       Cr196   2.041       .  S
O181       Cr196   1.969       .  S
O181        C182   1.263       .  A
C182        O183   1.274       .  A
C182        C320   1.474       .  S
O183       Cr197   2.038       .  S
O184       Cr197   1.956       .  S
O184        C185   1.258       .  A
C185        C336   1.478       .  S
O186       Cr195   1.951       .  S
O186        C194   1.254       .  A
O187       Cr195   2.041       .  S
O187        C188   1.275       .  A
C188        O189   1.259       .  A
C188        C355   1.474       .  S
O189       Cr196   1.959       .  S
O190       Cr196   2.029       .  S
O190        C191   1.266       .  A
C191        O192   1.254       .  A
C191        C403   1.467       .  S
O192       Cr197   1.965       .  S
O193       Cr197   2.030       .  S
O193        C194   1.269       .  A
C194        C611   1.475       .  S
Cr195       O198   1.773       .  S
Cr196       O198   1.777       .  S
Cr197       O198   1.768       .  S
O199       Cr217   2.029       .  S
O199        C207   1.272       .  A
O200       Cr217   1.972       .  S
O200        C201   1.255       .  A
C201        O202   1.267       .  A
C201        C464   1.480       .  S
O202       Cr218   2.031       .  S
O203       Cr218   1.960       .  S
O203        C204   1.255       .  A
C204        O205   1.270       .  A
C204        C304   1.471       .  S
O205       Cr219   2.041       .  S
O206       Cr219   1.966       .  S
O206        C207   1.259       .  A
C207        C352   1.475       .  S
O208       Cr217   1.978       .  S
O208        C216   1.257       .  A
O209       Cr217   2.031       .  S
O209        C210   1.271       .  A
C210        O211   1.259       .  A
C210        C339   1.476       .  S
O211       Cr218   1.958       .  S
O212       Cr218   2.040       .  S
O212        C213   1.271       .  A
C213        O214   1.260       .  A
C213        C368   1.476       .  S
O214       Cr219   1.966       .  S
O215       Cr219   2.043       .  S
O215        C216   1.271       .  A
C216        C563   1.489       .  S
Cr217       O220   1.769       .  S
Cr218       O220   1.774       .  S
Cr219       O220   1.776       .  S
O221       Cr239   2.032   1_556  S
O221        C229   1.273       .  A
O222       Cr239   1.960   1_556  S
O222        C223   1.253       .  A
C223        O224   1.264   1_556  A
C223        C576   1.473       .  S
O224       Cr240   2.020       .  S
O225       Cr240   1.960   1_556  S
O225        C226   1.254       .  A
C226        O227   1.270       .  A
C226        C384   1.467       .  S
O227       Cr241   2.038       .  S
O228       Cr241   1.959       .  S
O228        C229   1.259       .  A
C229        C272   1.475       .  S
O230       Cr239   1.972       .  S
O230        C238   1.254       .  A
O231       Cr239   2.031       .  S
O231        C232   1.271       .  A
C232        O233   1.259       .  A
C232        C291   1.472       .  S
O233       Cr240   1.954       .  S
O234       Cr240   2.037       .  S
O234        C235   1.270       .  A
C235        O236   1.257       .  A
C235        C323   1.473       .  S
O236       Cr241   1.966   1_554  S
O237       Cr241   2.030       .  S
O237        C238   1.267   1_556  A
C238        C752   1.485       .  S
Cr239       O242   1.779   1_554  S
Cr240       O242   1.776   1_554  S
Cr241       O242   1.780       .  S
O243       Cr261   2.027       .  S
O243        C251   1.269       .  A
O244       Cr261   1.968       .  S
O244        C245   1.251       .  A
C245        O246   1.268       .  A
C245        C627   1.477       .  S
O246       Cr262   2.042       .  S
O247       Cr262   1.961       .  S
O247        C248   1.261       .  A
C248        O249   1.275       .  A
C248        C416   1.471       .  S
O249       Cr263   2.042       .  S
O250       Cr263   1.954       .  S
O250        C251   1.257       .  A
C251        C288   1.477       .  S
O252       Cr261   1.964       .  S
O252        C260   1.257       .  A
O253       Cr261   2.043       .  S
O253        C254   1.276       .  A
C254        O255   1.259       .  A
C254        C275   1.470       .  S
O255       Cr262   1.956       .  S
O256       Cr262   2.042       .  S
O256        C257   1.267       .  A
C257        O258   1.251       .  A
C257        C307   1.470       .  S
O258       Cr263   1.958       .  S
O259       Cr263   2.027       .  S
O259        C260   1.269       .  A
C260        C688   1.480       .  S
Cr261       O264   1.771       .  S
Cr262       O264   1.777       .  S
Cr263       O264   1.764       .  S
C265        C270   1.379       .  A
C265        C266   1.413       .  A
C265        O271   1.327       .  A
C266        C267   1.412       .  A
C266        H277   1.081       .  S
C267        C276   1.374       .  A
C267        C268   1.380       .  A
C268        C269   1.400       .  A
C268        O274   1.315       .  A
C269        C270   1.399       .  A
C269        H278   1.081       .  S
C270        C273   1.359       .  A
O271        C272   1.336       .  A
C272        C273   1.389       .  A
C273        H279   1.082       .  S
O274        C275   1.329       .  A
C275        C276   1.395       .  A
C276        H280   1.082       .  S
C281        C286   1.379       .  A
C281        C282   1.414       .  A
C281        O287   1.329       .  A
C282        C283   1.414       .  A
C282        H293   1.082       .  S
C283        C292   1.375       .  A
C283        C284   1.380       .  A
C284        C285   1.395       .  A
C284        O290   1.311       .  A
C285        C286   1.394       .  A
C285        H294   1.082       .  S
C286        C289   1.350       .  A
O287        C288   1.337       .  A
C288        C289   1.388       .  A
C289        H295   1.082       .  S
O290        C291   1.327       .  A
C291        C292   1.398       .  A
C292        H296   1.082       .  S
C297        C302   1.379       .  A
C297        C298   1.411       .  A
C297        O303   1.324       .  A
C298        C299   1.410       .  A
C298        H309   1.081       .  S
C299        C308   1.371       .  A
C299        C300   1.380       .  A
C300        C301   1.397       .  A
C300        O306   1.312       .  A
C301        C302   1.396       .  A
C301        H310   1.081       .  S
C302        C305   1.354       .  A
O303        C304   1.335       .  A
C304        C305   1.390       .  A
C305        H311   1.082       .  S
O306        C307   1.328       .  A
C307        C308   1.397       .  A
C308        H312   1.082       .  S
C313        C318   1.379       .  A
C313        C314   1.409       .  A
C313        O319   1.323       .  A
C314        C315   1.408       .  A
C314        H325   1.081       .  S
C315        C324   1.369       .  A
C315        C316   1.380       .  A
C316        C317   1.401       .  A
C316        O322   1.316       .  A
C317        C318   1.400       .  A
C317        H326   1.081       .  S
C318        C321   1.359       .  A
O319        C320   1.334       .  A
C320        C321   1.391       .  A
C321        H327   1.082       .  S
O322        C323   1.330       .  A
C323        C324   1.395       .  A
C324        H328   1.082       .  S
C329        C334   1.379       .  A
C329        C330   1.416       .  A
C329        O335   1.331       .  A
C330        C331   1.417       .  A
C330        H341   1.081       .  S
C331        C340   1.376       .  A
C331        C332   1.381       .  A
C332        C333   1.394       .  A
C332        O338   1.312       .  A
C333        C334   1.393       .  A
C333        H342   1.082       .  S
C334        C337   1.348       .  A
O335        C336   1.338   1_556  A
C336        C337   1.387   1_554  A
C337        H343   1.083   1_556  S
O338        C339   1.327       .  A
C339        C340   1.399       .  A
C340        H344   1.082       .  S
C345        C350   1.380       .  A
C345        C346   1.400       .  A
C345        O351   1.318       .  A
C346        C347   1.400       .  A
C346        H357   1.082       .  S
C347        C356   1.357       .  A
C347        C348   1.380       .  A
C348        C349   1.412       .  A
C348        O354   1.329       .  A
C349        C350   1.413       .  A
C349        H358   1.082       .  S
C350        C353   1.372       .  A
O351        C352   1.329       .  A
C352        C353   1.396       .  A
C353        H359   1.082       .  S
O354        C355   1.335       .  A
C355        C356   1.389       .  A
C356        H360   1.083       .  S
C361        C366   1.379       .  A
C361        C362   1.412       .  A
C361        O367   1.326       .  A
C362        C363   1.411       .  A
C362        H373   1.080       .  S
C363        C372   1.370       .  A
C363        C364   1.380       .  A
C364        C365   1.398       .  A
C364        O370   1.314       .  A
C365        C366   1.397       .  A
C365        H374   1.079       .  S
C366        C369   1.355       .  A
O367        C368   1.336       .  A
C368        C369   1.389       .  A
C369        H375   1.081       .  S
O370        C371   1.328       .  A
C371        C372   1.397       .  A
C372        H376   1.082       .  S
C377        C382   1.380       .  A
C377        C378   1.401       .  A
C377        O383   1.315       .  A
C378        C379   1.399       .  A
C378        H389   1.082       .  S
C379        C388   1.360       .  A
C379        C380   1.380       .  A
C380        C381   1.407       .  A
C380        O386   1.319       .  A
C381        C382   1.405       .  A
C381        H390   1.082       .  S
C382        C385   1.367       .  A
O383        C384   1.329       .  A
C384        C385   1.394       .  A
C385        H391   1.083       .  S
O386        C387   1.332       .  A
C387        C388   1.390       .  A
C388        H392   1.083       .  S
C393        C398   1.380       .  A
C393        C394   1.408       .  A
C393        O399   1.325       .  A
C394        C395   1.408       .  A
C394        H405   1.082       .  S
C395        C404   1.367       .  A
C395        C396   1.380       .  A
C396        C397   1.398       .  A
C396        O402   1.315       .  A
C397        C398   1.398       .  A
C397        H406   1.082       .  S
C398        C401   1.354       .  A
O399        C400   1.334       .  A
C400        C401   1.390       .  A
C401        H407   1.083       .  S
O402        C403   1.328       .  A
C403        C404   1.394       .  A
C404        H408   1.082       .  S
C409        C414   1.380       .  A
C409        C410   1.406       .  A
C409        O415   1.322       .  A
C410        C411   1.406       .  A
C410        H421   1.082       .  S
C411        C420   1.365       .  A
C411        C412   1.380       .  A
C412        C413   1.401       .  A
C412        O418   1.316       .  A
C413        C414   1.400       .  A
C413        H422   1.082       .  S
C414        C417   1.357       .  A
O415        C416   1.333       .  A
C416        C417   1.391       .  A
C417        H423   1.083       .  S
O418        C419   1.331       .  A
C419        C420   1.392       .  A
C420        H424   1.082       .  S
C425        C430   1.379       .  A
C425        C426   1.409       .  A
C425        O431   1.323       .  A
C426        C427   1.408       .  A
C426        H437   1.081       .  S
C427        C436   1.369       .  A
C427        C428   1.380       .  A
C428        C429   1.406       .  A
C428        O434   1.321       .  A
C429        C430   1.405       .  A
C429        H438   1.081       .  S
C430        C433   1.366       .  A
O431        C432   1.333       .  A
C432        C433   1.393       .  A
C433        H439   1.082       .  S
O434        C435   1.332       .  A
C435        C436   1.393       .  A
C436        H440   1.082       .  S
C441        C446   1.379       .  A
C441        C442   1.412       .  A
C441        O447   1.329       .  A
C442        C443   1.411       .  A
C442        H453   1.082       .  S
C443        C452   1.371   1_554  A
C443        C444   1.380       .  A
C444        C445   1.401       .  A
C444        O450   1.318   1_554  A
C445        C446   1.401       .  A
C445        H454   1.082       .  S
C446        C449   1.357       .  A
O447        C448   1.336       .  A
C448        C449   1.393       .  A
C449        H455   1.083       .  S
O450        C451   1.331       .  A
C451        C452   1.395       .  A
C452        H456   1.082       .  S
C457        C462   1.380       .  A
C457        C458   1.403       .  A
C457        O463   1.316       .  A
C458        C459   1.401   1_655  A
C458        H469   1.083       .  S
C459        C468   1.364       .  A
C459        C460   1.379       .  A
C460        C461   1.412       .  A
C460        O466   1.323       .  A
C461        C462   1.410   1_455  A
C461        H470   1.083       .  S
C462        C465   1.375       .  A
O463        C464   1.331       .  A
C464        C465   1.396       .  A
C465        H471   1.082       .  S
O466        C467   1.335       .  A
C467        C468   1.388       .  A
C468        H472   1.083       .  S
C473        C478   1.379       .  A
C473        C474   1.400       .  A
C473        O479   1.313       .  A
C474        C475   1.398       .  A
C474        H485   1.082       .  S
C475        C484   1.358       .  A
C475        C476   1.380       .  A
C476        C477   1.412       .  A
C476        O482   1.325       .  A
C477        C478   1.411       .  A
C477        H486   1.081       .  S
C478        C481   1.375       .  A
O479        C480   1.329       .  A
C480        C481   1.397       .  A
C481        H487   1.082       .  S
O482        C483   1.334       .  A
C483        C484   1.389       .  A
C484        H488   1.082       .  S
C489        C494   1.380       .  A
C489        C490   1.392       .  A
C489        O495   1.309       .  A
C490        C491   1.391       .  A
C490        H501   1.082       .  S
C491        C500   1.346       .  A
C491        C492   1.379       .  A
C492        C493   1.414       .  A
C492        O498   1.329       .  A
C493        C494   1.414       .  A
C493        H502   1.081       .  S
C494        C497   1.375       .  A
O495        C496   1.325       .  A
C496        C497   1.398       .  A
C497        H503   1.081       .  S
O498        C499   1.337       .  A
C499        C500   1.388       .  A
C500        H504   1.083       .  S
C505        C510   1.380       .  A
C505        C506   1.402       .  A
C505        O511   1.316       .  A
C506        C507   1.400       .  A
C506        H517   1.082       .  S
C507        C516   1.360       .  A
C507        C508   1.380       .  A
C508        C509   1.409       .  A
C508        O514   1.322       .  A
C509        C510   1.409       .  A
C509        H518   1.081       .  S
C510        C513   1.371       .  A
O511        C512   1.330       .  A
C512        C513   1.394       .  A
C513        H519   1.082       .  S
O514        C515   1.333       .  A
C515        C516   1.388       .  A
C516        H520   1.083       .  S
C521        C526   1.379       .  A
C521        C522   1.404       .  A
C521        O527   1.316       .  A
C522        C523   1.402   1_655  A
C522        H533   1.080       .  S
C523        C532   1.365       .  A
C523        C524   1.379       .  A
C524        C525   1.412       .  A
C524        O530   1.323       .  A
C525        C526   1.410   1_455  A
C525        H534   1.080       .  S
C526        C529   1.374       .  A
O527        C528   1.331       .  A
C528        C529   1.395       .  A
C529        H535   1.081       .  S
O530        C531   1.335       .  A
C531        C532   1.389       .  A
C532        H536   1.081   1_554  S
C537        C542   1.380       .  A
C537        C538   1.405       .  A
C537        O543   1.325       .  A
C538        C539   1.406       .  A
C538        H549   1.081       .  S
C539        C548   1.360       .  A
C539        C540   1.381       .  A
C540        C541   1.404       .  A
C540        O546   1.323       .  A
C541        C542   1.405       .  A
C541        H550   1.081       .  S
C542        C545   1.358       .  A
O543        C544   1.332       .  A
C544        C545   1.393       .  A
C545        H551   1.082       .  S
O546        C547   1.331       .  A
C547        C548   1.392       .  A
C548        H552   1.082       .  S
C553        C558   1.380       .  A
C553        C554   1.409   1_565  A
C553        O559   1.330       .  A
C554        C555   1.412       .  A
C554        H565   1.081       .  S
C555        C564   1.366       .  A
C555        C556   1.380       .  A
C556        C557   1.409   1_545  A
C556        O562   1.330       .  A
C557        C558   1.411       .  A
C557        H566   1.081       .  S
C558        C561   1.363       .  A
O559        C560   1.335       .  A
C560        C561   1.395       .  A
C561        H567   1.082       .  S
O562        C563   1.335       .  A
C563        C564   1.395       .  A
C564        H568   1.081       .  S
C569        C574   1.379       .  A
C569        C570   1.414       .  A
C569        O575   1.327       .  A
C570        C571   1.412       .  A
C570        H581   1.081       .  S
C571        C580   1.376       .  A
C571        C572   1.380       .  A
C572        C573   1.396       .  A
C572        O578   1.310       .  A
C573        C574   1.395       .  A
C573        H582   1.080       .  S
C574        C577   1.354       .  A
O575        C576   1.336       .  A
C576        C577   1.387       .  A
C577        H583   1.082       .  S
O578        C579   1.328       .  A
C579        C580   1.397       .  A
C580        H584   1.082       .  S
C585        C590   1.380       .  A
C585        C586   1.399       .  A
C585        O591   1.314       .  A
C586        C587   1.397       .  A
C586        H597   1.082       .  S
C587        C596   1.355       .  A
C587        C588   1.379       .  A
C588        C589   1.409       .  A
C588        O594   1.323       .  A
C589        C590   1.409       .  A
C589        H598   1.082       .  S
C590        C593   1.369       .  A
O591        C592   1.329       .  A
C592        C593   1.396       .  A
C593        H599   1.082       .  S
O594        C595   1.334       .  A
C595        C596   1.390       .  A
C596        H600   1.082       .  S
C601        C606   1.380       .  A
C601        C602   1.396       .  A
C601        O607   1.312       .  A
C602        C603   1.396   1_565  A
C602        H613   1.081       .  S
C603        C612   1.352       .  A
C603        C604   1.379       .  A
C604        C605   1.413       .  A
C604        O610   1.328       .  A
C605        C606   1.412   1_545  A
C605        H614   1.081       .  S
C606        C609   1.373       .  A
O607        C608   1.328       .  A
C608        C609   1.396       .  A
C609        H615   1.082       .  S
O610        C611   1.336       .  A
C611        C612   1.389       .  A
C612        H616   1.082       .  S
C617        C622   1.379       .  A
C617        C618   1.410       .  A
C617        O623   1.321       .  A
C618        C619   1.408       .  A
C618        H629   1.081       .  S
C619        C628   1.372       .  A
C619        C620   1.379       .  A
C620        C621   1.407       .  A
C620        O626   1.319       .  A
C621        C622   1.405       .  A
C621        H630   1.081       .  S
C622        C625   1.369       .  A
O623        C624   1.335       .  A
C624        C625   1.391       .  A
C625        H631   1.081       .  S
O626        C627   1.333       .  A
C627        C628   1.393       .  A
C628        H632   1.081       .  S
C633        C638   1.380       .  A
C633        C634   1.407       .  A
C633        O639   1.320       .  A
C634        C635   1.406       .  A
C634        H645   1.082       .  S
C635        C644   1.366       .  A
C635        C636   1.381       .  A
C636        C637   1.397       .  A
C636        O642   1.313       .  A
C637        C638   1.396       .  A
C637        H646   1.081       .  S
C638        C641   1.355       .  A
O639        C640   1.333       .  A
C640        C641   1.388       .  A
C641        H647   1.082       .  S
O642        C643   1.327       .  A
C643        C644   1.395       .  A
C644        H648   1.082       .  S
C649        C654   1.380       .  A
C649        C650   1.395       .  A
C649        O655   1.311       .  A
C650        C651   1.395       .  A
C650        H661   1.081       .  S
C651        C660   1.351       .  A
C651        C652   1.379       .  A
C652        C653   1.413       .  A
C652        O658   1.328       .  A
C653        C654   1.413       .  A
C653        H662   1.081       .  S
C654        C657   1.374       .  A
O655        C656   1.327       .  A
C656        C657   1.397       .  A
C657        H663   1.082       .  S
O658        C659   1.336       .  A
C659        C660   1.389       .  A
C660        H664   1.082       .  S
C665        C670   1.379       .  A
C665        C666   1.413       .  A
C665        O671   1.327       .  A
C666        C667   1.412       .  A
C666        H677   1.081       .  S
C667        C676   1.374       .  A
C667        C668   1.379       .  A
C668        C669   1.405       .  A
C668        O674   1.320       .  A
C669        C670   1.404       .  A
C669        H678   1.082       .  S
C670        C673   1.363       .  A
O671        C672   1.336       .  A
C672        C673   1.391       .  A
C673        H679   1.082       .  S
O674        C675   1.332   1_554  A
C675        C676   1.395   1_556  A
C676        H680   1.081       .  S
C681        C686   1.379       .  A
C681        C682   1.415       .  A
C681        O687   1.329       .  A
C682        C683   1.414   1_655  A
C682        H693   1.082       .  S
C683        C692   1.377       .  A
C683        C684   1.380       .  A
C684        C685   1.400       .  A
C684        O690   1.315       .  A
C685        C686   1.398   1_455  A
C685        H694   1.082       .  S
C686        C689   1.358       .  A
O687        C688   1.337       .  A
C688        C689   1.389       .  A
C689        H695   1.082       .  S
O690        C691   1.329       .  A
C691        C692   1.398       .  A
C692        H696   1.082       .  S
C697        C702   1.380       .  A
C697        C698   1.398       .  A
C697        O703   1.314       .  A
C698        C699   1.397   1_565  A
C698        H709   1.082       .  S
C699        C708   1.354       .  A
C699        C700   1.380       .  A
C700        C701   1.412       .  A
C700        O706   1.326       .  A
C701        C702   1.411   1_545  A
C701        H710   1.082       .  S
C702        C705   1.373       .  A
O703        C704   1.329       .  A
C704        C705   1.396       .  A
C705        H711   1.082       .  S
O706        C707   1.335       .  A
C707        C708   1.388       .  A
C708        H712   1.083       .  S
C713        C718   1.380       .  A
C713        C714   1.406       .  A
C713        O719   1.321       .  A
C714        C715   1.406       .  A
C714        H725   1.080       .  S
C715        C724   1.367       .  A
C715        C716   1.380       .  A
C716        C717   1.401       .  A
C716        O722   1.315       .  A
C717        C718   1.399       .  A
C717        H726   1.080       .  S
C718        C721   1.358       .  A
O719        C720   1.332       .  A
C720        C721   1.390       .  A
C721        H727   1.081       .  S
O722        C723   1.330       .  A
C723        C724   1.393       .  A
C724        H728   1.082       .  S
C729        C734   1.379       .  A
C729        C730   1.409       .  A
C729        O735   1.322       .  A
C730        C731   1.408       .  A
C730        H741   1.080       .  S
C731        C740   1.371       .  A
C731        C732   1.380       .  A
C732        C733   1.399       .  A
C732        O738   1.312       .  A
C733        C734   1.397       .  A
C733        H742   1.080       .  S
C734        C737   1.357       .  A
O735        C736   1.334       .  A
C736        C737   1.388       .  A
C737        H743   1.081       .  S
O738        C739   1.328       .  A
C739        C740   1.394       .  A
C740        H744   1.082       .  S
C745        C750   1.379       .  A
C745        C746   1.404       .  A
C745        O751   1.320       .  A
C746        C747   1.403   1_655  A
C746        H757   1.080       .  S
C747        C756   1.362       .  A
C747        C748   1.379       .  A
C748        C749   1.413       .  A
C748        O754   1.328       .  A
C749        C750   1.413   1_455  A
C749        H758   1.081       .  S
C750        C753   1.374       .  A
O751        C752   1.332       .  A
C752        C753   1.397       .  A
C753        H759   1.082       .  S
O754        C755   1.336       .  A
C755        C756   1.390       .  A
C756        H760   1.081       .  S
C761        C766   1.379       .  A
C761        C762   1.409       .  A
C761        O767   1.320       .  A
C762        C763   1.407   1_545  A
C762        H773   1.083       .  S
C763        C772   1.372       .  A
C763        C764   1.379       .  A
C764        C765   1.407       .  A
C764        O770   1.320       .  A
C765        C766   1.405   1_565  A
C765        H774   1.083       .  S
C766        C769   1.369       .  A
O767        C768   1.334       .  A
C768        C769   1.392       .  A
C769        H775   1.082       .  S
O770        C771   1.333       .  A
C771        C772   1.394       .  A
C772        H776   1.083       .  S
C777        C782   1.379       .  A
C777        C778   1.409       .  A
C777        O783   1.324       .  A
C778        C779   1.409       .  A
C778        H789   1.081       .  S
C779        C788   1.367       .  A
C779        C780   1.380       .  A
C780        C781   1.398       .  A
C780        O786   1.315       .  A
C781        C782   1.398       .  A
C781        H790   1.081       .  S
C782        C785   1.355       .  A
O783        C784   1.335       .  A
C784        C785   1.389       .  A
C785        H791   1.082       .  S
O786        C787   1.328       .  A
C787        C788   1.395       .  A
C788        H792   1.082       .  S
C793        C798   1.379       .  A
C793        C794   1.410       .  A
C793        O799   1.325       .  A
C794        C795   1.410       .  A
C794        H805   1.081       .  S
C795        C804   1.369       .  A
C795        C796   1.380       .  A
C796        C797   1.397       .  A
C796        O802   1.313       .  A
C797        C798   1.396       .  A
C797        H806   1.081       .  S
C798        C801   1.352       .  A
O799        C800   1.335       .  A
C800        C801   1.390       .  A
C801        H807   1.082       .  S
O802        C803   1.328       .  A
C803        C804   1.396       .  A
C804        H808   1.082       .  S
C809        C814   1.380       .  A
C809        C810   1.398       .  A
C809        O815   1.312   1_556  A
C810        C811   1.397       .  A
C810        H821   1.082       .  S
C811        C820   1.356       .  A
C811        C812   1.380       .  A
C812        C813   1.412       .  A
C812        O818   1.326       .  A
C813        C814   1.411       .  A
C813        H822   1.081       .  S
C814        C817   1.375       .  A
O815        C816   1.328       .  A
C816        C817   1.395   1_554  A
C817        H823   1.082       .  S
O818        C819   1.335       .  A
C819        C820   1.388       .  A
C820        H824   1.083       .  S
C825        C830   1.380       .  A
C825        C826   1.413       .  A
C825        O831   1.330       .  A
C826        C827   1.414       .  A
C826        H837   1.082       .  S
C827        C836   1.373       .  A
C827        C828   1.381       .  A
C828        C829   1.395       .  A
C828        O834   1.313       .  A
C829        C830   1.395       .  A
C829        H838   1.082       .  S
C830        C833   1.348       .  A
O831        C832   1.336       .  A
C832        C833   1.388       .  A
C833        H839   1.083       .  S
O834        C835   1.328       .  A
C835        C836   1.396       .  A
C836        H840   1.082       .  S
