geometry optimzed in LAMMPS
_audit_creation_date              2020-11-30 
_audit_creation_method            'lammps2cif' 
_symmetry_space_group_name_H-M    'P1' 
_symmetry_Int_Tables_number       1 
_symmetry_cell_setting            triclinic 
loop_ 
_symmetry_equiv_pos_as_xyz 
  x,y,z 
_cell_length_a                    46.61604806 
_cell_length_b                    46.61606628037516 
_cell_length_c                    45.28998431004029 
_cell_angle_alpha                 90.00005407004367 
_cell_angle_beta                  89.99994599342736 
_cell_angle_gamma                 90.00022986617147 
loop_ 
_atom_site_label 
_atom_site_type_symbol 
_atom_site_fract_x 
_atom_site_fract_y 
_atom_site_fract_z 
_atom_site_charge 
O1          O  0.21951073  0.14935026  0.46865600    -0.68600
O2          O  0.28048487  0.14935120  0.03134457    -0.69600
O3          O  0.28048582  0.14935094  0.46865677    -0.58200
O4          O  0.21950988  0.14935058  0.03134366    -0.66600
O5          O  0.21954032  0.10166088  0.03131993    -0.66200
O6          O  0.28045606  0.10166114  0.46868112    -0.57400
O7          O  0.28045499  0.10166150  0.03132076    -0.69900
O8          O  0.21954123  0.10166045  0.46868034    -0.68700
Cu9        Cu  0.24999784  0.15104476  0.00000021     1.04600
Cu10       Cu  0.24999817  0.09998774  0.50000054     1.04300
C11         C  0.20997465  0.12549046  0.45890992     0.97600
C12         C  0.29002103  0.12549175  0.04109126     0.96700
C13         C  0.29002241  0.12549135  0.45891075     0.88900
C14         C  0.20997370  0.12549098  0.04109006     0.95100
O15         O  0.10168241  0.28044659  0.03131818    -0.68600
O16         O  0.10168258  0.21953096  0.46867983    -0.69600
O17         O  0.10168128  0.21953189  0.03131942    -0.58200
O18         O  0.10168426  0.28044546  0.46867864    -0.66600
O19         O  0.14937395  0.28047506  0.46865554    -0.66200
O20         O  0.14937107  0.21950069  0.03134472    -0.57400
O21         O  0.14937237  0.21949959  0.46865638    -0.69900
O22         O  0.14937220  0.28047627  0.03134372    -0.68700
Cu23       Cu  0.10000955  0.24998876  0.99999900     1.04600
Cu24       Cu  0.15106655  0.24998786  0.00000017     1.04300
C25         C  0.12551233  0.29001305  0.04108906     0.97600
C26         C  0.12551253  0.20996384  0.45890981     0.96700
C27         C  0.12551093  0.20996504  0.04109055     0.88900
C28         C  0.12551468  0.29001149  0.45890858     0.95100
O29         O  0.28048608  0.35062887  0.46865754    -0.68600
O30         O  0.21950911  0.35063150  0.03134346    -0.69600
O31         O  0.21951103  0.35063050  0.46865601    -0.58200
O32         O  0.28048412  0.35062946  0.03134525    -0.66600
O33         O  0.28045568  0.39831918  0.03132082    -0.66200
O34         O  0.21954253  0.39832033  0.46867922    -0.57400
O35         O  0.21954076  0.39832121  0.03131891    -0.69900
O36         O  0.28045739  0.39831865  0.46868105    -0.68700
Cu37       Cu  0.24999755  0.34893610  0.00000061     1.04600
Cu38       Cu  0.24999915  0.39999311  0.00000002     1.04300
C39         C  0.29002336  0.37448813  0.45891125     0.97600
C40         C  0.20997317  0.37449145  0.04108905     0.96700
C41         C  0.20997567  0.37449017  0.45890909     0.88900
C42         C  0.29002101  0.37448879  0.04109161     0.95100
O43         O  0.39831604  0.21953053  0.03132210    -0.68600
O44         O  0.39831669  0.28044535  0.46868291    -0.69600
O45         O  0.39831475  0.28044515  0.03132244    -0.58200
O46         O  0.39831794  0.21953065  0.46868247    -0.66600
O47         O  0.35062814  0.21949938  0.46865683    -0.66200
O48         O  0.35062493  0.28047428  0.03134509    -0.57400
O49         O  0.35062689  0.28047455  0.46865719    -0.69900
O50         O  0.35062625  0.21949907  0.03134491    -0.68700
Cu51       Cu  0.39998955  0.24998791  0.50000253     1.04600
Cu52       Cu  0.34893248  0.24998678  0.50000094     1.02700
C53         C  0.37448587  0.20996358  0.04109198     0.97600
C54         C  0.37448672  0.29001139  0.45891181     0.96700
C55         C  0.37448417  0.29001095  0.04109222     0.88900
C56         C  0.37448830  0.20996371  0.45891125     0.95100
O57         O  0.14831632  0.03044572  0.21867988    -0.68600
O58         O  0.14831638  0.46952994  0.28131806    -0.69600
O59         O  0.14831455  0.46953121  0.21867844    -0.58200
O60         O  0.14831771  0.03044455  0.28131953    -0.66600
O61         O  0.10062797  0.03047557  0.28134469    -0.66200
O62         O  0.10062471  0.46950193  0.21865567    -0.57400
O63         O  0.10062654  0.46950061  0.28134359    -0.69900
O64         O  0.10062658  0.03047686  0.21865684    -0.68700
Cu65       Cu  0.14998945  0.49998779  0.24999895     1.04600
Cu66       Cu  0.09893235  0.49998880  0.25000031     1.04300
C67         C  0.12448626  0.04001264  0.20891005     0.97600
C68         C  0.12448630  0.45996378  0.29108899     0.96700
C69         C  0.12448389  0.45996557  0.20890842     0.88900
C70         C  0.12448798  0.04001116  0.29109065     0.95100
O71         O  0.03048681  0.39934764  0.28134368    -0.68600
O72         O  0.46950951  0.39934774  0.21865778    -0.69600
O73         O  0.46951161  0.39934715  0.28134544    -0.58200
O74         O  0.03048470  0.39934878  0.21865577    -0.66600
O75         O  0.03045506  0.35165898  0.21867904    -0.66200
O76         O  0.46954202  0.35165734  0.28132099    -0.57400
O77         O  0.46954014  0.35165795  0.21868129    -0.69900
O78         O  0.03045695  0.35165795  0.28131891    -0.68700
Cu79       Cu  0.49999813  0.40104186  0.25000071     1.04600
Cu80       Cu  0.99999860  0.34998484  0.25000002     1.04300
C81         C  0.04002343  0.37548801  0.29108945     0.97600
C82         C  0.45997315  0.37548807  0.20891152     0.96700
C83         C  0.45997578  0.37548737  0.29109181     0.88900
C84         C  0.04002077  0.37548944  0.20890862     0.95100
O85         O  0.35168040  0.03044370  0.28132239    -0.68600
O86         O  0.35168037  0.46952916  0.21868291    -0.69600
O87         O  0.35168258  0.46952930  0.28132252    -0.58200
O88         O  0.35167834  0.03044372  0.21868279    -0.66600
O89         O  0.39936805  0.03047581  0.21865685    -0.66200
O90         O  0.39937228  0.46950050  0.28134495    -0.57400
O91         O  0.39937020  0.46950049  0.21865692    -0.69900
O92         O  0.39937025  0.03047585  0.28134486    -0.68700
Cu93       Cu  0.35000727  0.49998644  0.25000268     1.04600
Cu94       Cu  0.40106431  0.49998821  0.25000083     1.04300
C95         C  0.37551049  0.04001098  0.29109205     0.97600
C96         C  0.37551040  0.45996343  0.20891166     0.96700
C97         C  0.37551320  0.45996362  0.29109220     0.88900
C98         C  0.37550775  0.04001116  0.20891151     0.95100
O99         O  0.03048498  0.10062252  0.21865558    -0.68600
O100        O  0.46951087  0.10062200  0.28134466    -0.69600
O101        O  0.46950970  0.10062255  0.21865664    -0.58200
O102        O  0.03048603  0.10062194  0.28134371    -0.66600
O103        O  0.03045607  0.14831161  0.28131994    -0.66200
O104        O  0.46954018  0.14831232  0.21868125    -0.57400
O105        O  0.46954144  0.14831180  0.28132090    -0.69900
O106        O  0.03045494  0.14831220  0.21868020    -0.68700
Cu107      Cu  0.49999793  0.09892818  0.25000010     1.04600
Cu108      Cu  0.99999820  0.14998516  0.25000058     1.04300
C109        C  0.04002113  0.12448224  0.20890933     0.97600
C110        C  0.45997504  0.12448165  0.29109134     0.96700
C111        C  0.45997333  0.12448231  0.20891087     0.88900
C112        C  0.04002236  0.12448149  0.29109030     0.95100
C113        C  0.14681701  0.12543560  0.10357980     0.06600
C114        C  0.12544804  0.14680788  0.10358008     0.06600
C115        C  0.10376838  0.14621983  0.12499974    -0.13900
C116        C  0.10317755  0.12454019  0.14641927     0.06600
C117        C  0.12454683  0.10316831  0.14641932     0.06600
C118        C  0.14622628  0.10375615  0.12499953    -0.13900
H119        H  0.16268206  0.08729813  0.12499951     0.08600
H120        H  0.08731263  0.16267791  0.12499996     0.08600
C121        C  0.37454565  0.14680777  0.10358279     0.06600
C122        C  0.35317608  0.12543594  0.10358261     0.06600
C123        C  0.35376628  0.10375658  0.12500232    -0.13900
C124        C  0.37544563  0.10316825  0.14642212     0.06600
C125        C  0.39681533  0.12454000  0.14642230     0.06600
C126        C  0.39622498  0.14621950  0.12500266    -0.13900
H127        H  0.41268167  0.16267739  0.12500266     0.08600
H128        H  0.33730979  0.08729838  0.12500207     0.08600
C129        C  0.37454959  0.14680687  0.39642147     0.06600
C130        C  0.35317995  0.12543499  0.39642165     0.06600
C131        C  0.35377032  0.10375545  0.37500205    -0.13900
C132        C  0.37544974  0.10316720  0.35358231     0.06600
C133        C  0.39681940  0.12453899  0.35358218     0.06600
C134        C  0.39622903  0.14621855  0.37500175    -0.13900
H135        H  0.41268573  0.16267665  0.37500179     0.08600
H136        H  0.33731400  0.08729716  0.37500231     0.08600
C137        C  0.35317663  0.37454055  0.10358245     0.06600
C138        C  0.37454434  0.35316700  0.10358292     0.06600
C139        C  0.39622344  0.35375355  0.12500309    -0.13900
C140        C  0.39681543  0.37543295  0.14642277     0.06600
C141        C  0.37544760  0.39680637  0.14642234     0.06600
C142        C  0.35376847  0.39621979  0.12500224    -0.13900
H143        H  0.33731331  0.41267918  0.12500187     0.08600
H144        H  0.41267862  0.33729410  0.12500336     0.08600
C145        C  0.35318112  0.37454158  0.39642258     0.06600
C146        C  0.37454897  0.35316823  0.39642233     0.06600
C147        C  0.39622824  0.35375477  0.37500236    -0.13900
C148        C  0.39682015  0.37543390  0.35358245     0.06600
C149        C  0.37545243  0.39680741  0.35358273     0.06600
C150        C  0.35377303  0.39622090  0.37500272    -0.13900
H151        H  0.33731835  0.41267996  0.37500294     0.08600
H152        H  0.41268335  0.33729532  0.37500219     0.08600
C153        C  0.14681418  0.37454610  0.10357615     0.06600
C154        C  0.12544686  0.35317203  0.10357664     0.06600
C155        C  0.10376742  0.35375826  0.12499659    -0.13900
C156        C  0.10317521  0.37543758  0.14641641     0.06600
C157        C  0.12454282  0.39681137  0.14641605     0.06600
C158        C  0.14622188  0.39622551  0.12499577    -0.13900
H159        H  0.16267658  0.41268473  0.12499576     0.08600
H160        H  0.08731254  0.33729850  0.12499691     0.08600
C161        C  0.14682011  0.37454178  0.39641833     0.06600
C162        C  0.12545277  0.35316762  0.39641787     0.06600
C163        C  0.10377356  0.35375367  0.37499772    -0.13900
C164        C  0.10318127  0.37543309  0.35357806     0.06600
C165        C  0.12454891  0.39680691  0.35357844     0.06600
C166        C  0.14622800  0.39622095  0.37499851    -0.13900
H167        H  0.16268279  0.41268085  0.37499884     0.08600
H168        H  0.08731866  0.33729399  0.37499748     0.08600
C169        C  0.14681786  0.12543422  0.39642069     0.06600
C170        C  0.12544900  0.14680656  0.39642030     0.06600
C171        C  0.10376942  0.14621840  0.37500055    -0.13900
C172        C  0.10317855  0.12453880  0.35358096     0.06600
C173        C  0.12454781  0.10316686  0.35358127     0.06600
C174        C  0.14622704  0.10375474  0.37500117    -0.13900
H175        H  0.16268284  0.08729662  0.37500131     0.08600
H176        H  0.08731336  0.16267685  0.37500029     0.08600
C177        C  0.08058502  0.12462769  0.33176642    -0.08900
C178        C  0.06194778  0.12454151  0.31331106    -0.10500
C179        C  0.08058366  0.12462903  0.16823329    -0.08900
C180        C  0.06194622  0.12454262  0.18668836    -0.10500
C181        C  0.41940931  0.12462864  0.16823638    -0.08900
C182        C  0.43804735  0.12454258  0.18669086    -0.10500
C183        C  0.43805012  0.12454164  0.31331241    -0.08900
C184        C  0.41941290  0.12462779  0.33176771    -0.10500
C185        C  0.37545012  0.06193628  0.31331271    -0.08900
C186        C  0.37536289  0.08057349  0.33176801    -0.10500
C187        C  0.37544622  0.06193670  0.18669104    -0.08900
C188        C  0.37535881  0.08057442  0.16823627    -0.10500
C189        C  0.37544987  0.43803790  0.18669123    -0.08900
C190        C  0.37536223  0.41940018  0.16823648    -0.10500
C191        C  0.37545412  0.43803827  0.31331295    -0.08900
C192        C  0.37536690  0.41940092  0.33176815    -0.10500
C193        C  0.06194534  0.37543035  0.18668717    -0.08900
C194        C  0.08058218  0.37534616  0.16823145    -0.10500
C195        C  0.06194953  0.37542801  0.31330931    -0.08900
C196        C  0.08058738  0.37534254  0.33176394    -0.10500
C197        C  0.43805073  0.37542739  0.31331265    -0.08900
C198        C  0.41941343  0.37534285  0.33176781    -0.10500
C199        C  0.43804701  0.37542814  0.18669163    -0.08900
C200        C  0.41940910  0.37534271  0.16823704    -0.10500
C201        C  0.12463368  0.08057504  0.16823404    -0.08900
C202        C  0.12454652  0.06193791  0.18668939    -0.10500
C203        C  0.12454873  0.06193617  0.31331157    -0.08900
C204        C  0.12463520  0.08057347  0.33176673    -0.10500
C205        C  0.12454666  0.43803803  0.31330925    -0.08900
C206        C  0.12463429  0.41940042  0.33176409    -0.10500
C207        C  0.12454275  0.43804100  0.18668703    -0.08900
C208        C  0.12462903  0.41940424  0.16823126    -0.10500
C209        C  0.37454592  0.18803839  0.06331286    -0.08900
C210        C  0.37463281  0.16940119  0.08176818    -0.10500
C211        C  0.37463013  0.33057360  0.08176822    -0.08900
C212        C  0.37454339  0.31193621  0.06331305    -0.10500
C213        C  0.37454719  0.31193709  0.43669151    -0.08900
C214        C  0.37463455  0.33057474  0.41823673    -0.10500
C215        C  0.37463653  0.16940060  0.41823573    -0.08900
C216        C  0.37454943  0.18803827  0.43669060    -0.10500
C217        C  0.31194614  0.37454780  0.06331247    -0.08900
C218        C  0.33058346  0.37463171  0.08176766    -0.10500
C219        C  0.16940828  0.37463698  0.08176239    -0.08900
C220        C  0.18804657  0.37455198  0.06330830    -0.10500
C221        C  0.16941320  0.37463352  0.41823315    -0.08900
C222        C  0.18805050  0.37454974  0.43668833    -0.10500
C223        C  0.33058729  0.37463201  0.41823672    -0.08900
C224        C  0.31194945  0.37454719  0.43669137    -0.10500
C225        C  0.12536272  0.33057769  0.08176303    -0.08900
C226        C  0.12545142  0.31193939  0.06330884    -0.10500
C227        C  0.12536196  0.16940189  0.08176604    -0.08900
C228        C  0.12544973  0.18803960  0.06331122    -0.10500
C229        C  0.12545174  0.18803828  0.43668923    -0.08900
C230        C  0.12536329  0.16940069  0.41823424    -0.10500
C231        C  0.12536770  0.33057399  0.41823241    -0.08900
C232        C  0.12545514  0.31193660  0.43668759    -0.10500
C233        C  0.18804806  0.12543116  0.06331033    -0.08900
C234        C  0.16941051  0.12534595  0.08176528    -0.10500
C235        C  0.33058287  0.12534662  0.08176794    -0.08900
C236        C  0.31194588  0.12543215  0.06331243    -0.10500
C237        C  0.33058614  0.12534606  0.41823588    -0.08900
C238        C  0.31194831  0.12543157  0.43669060    -0.10500
C239        C  0.18804925  0.12543031  0.43668953    -0.08900
C240        C  0.16941153  0.12534476  0.41823488    -0.10500
O241        O  0.21951069  0.14935014  0.96865607    -0.68600
O242        O  0.28048485  0.14935117  0.53134459    -0.69600
O243        O  0.28048583  0.14935090  0.96865674    -0.58200
O244        O  0.21950986  0.14935062  0.53134361    -0.66600
O245        O  0.21954034  0.10166090  0.53132001    -0.66200
O246        O  0.28045604  0.10166110  0.96868105    -0.57400
O247        O  0.28045500  0.10166139  0.53132087    -0.69900
O248        O  0.21954122  0.10166043  0.96868027    -0.68700
Cu249      Cu  0.24999783  0.15104479  0.50000022     1.04600
Cu250      Cu  0.24999816  0.09998777  0.00000051     1.04300
C251        C  0.20997467  0.12549040  0.95890986     0.97600
C252        C  0.29002099  0.12549170  0.54109134     0.96700
C253        C  0.29002244  0.12549133  0.95891071     0.88900
C254        C  0.20997362  0.12549102  0.54109000     0.95100
O255        O  0.10168252  0.28044654  0.53131820    -0.68600
O256        O  0.10168268  0.21953102  0.96867983    -0.69600
O257        O  0.10168137  0.21953190  0.53131943    -0.58200
O258        O  0.10168421  0.28044548  0.96867865    -0.66600
O259        O  0.14937391  0.28047507  0.96865553    -0.66200
O260        O  0.14937106  0.21950068  0.53134467    -0.57400
O261        O  0.14937236  0.21949958  0.96865644    -0.69900
O262        O  0.14937219  0.28047628  0.53134376    -0.68700
Cu263      Cu  0.10000956  0.24998872  0.49999899     1.04600
Cu264      Cu  0.15106653  0.24998784  0.50000017     1.04300
C265        C  0.12551238  0.29001305  0.54108909     0.97600
C266        C  0.12551257  0.20996383  0.95890983     0.96700
C267        C  0.12551098  0.20996503  0.54109054     0.88900
C268        C  0.12551464  0.29001149  0.95890857     0.95100
O269        O  0.28048607  0.35062886  0.96865757    -0.68600
O270        O  0.21950909  0.35063143  0.53134341    -0.69600
O271        O  0.21951104  0.35063050  0.96865607    -0.58200
O272        O  0.28048412  0.35062946  0.53134526    -0.66600
O273        O  0.28045571  0.39831918  0.53132085    -0.66200
O274        O  0.21954254  0.39832022  0.96867928    -0.57400
O275        O  0.21954074  0.39832123  0.53131886    -0.69900
O276        O  0.28045739  0.39831865  0.96868106    -0.68700
Cu277      Cu  0.24999754  0.34893607  0.50000059     1.04600
Cu278      Cu  0.24999916  0.39999313  0.50000001     1.04300
C279        C  0.29002332  0.37448812  0.95891123     0.97600
C280        C  0.20997315  0.37449142  0.54108900     0.96700
C281        C  0.20997564  0.37449011  0.95890915     0.88900
C282        C  0.29002102  0.37448879  0.54109161     0.95100
O283        O  0.39831602  0.21953045  0.53132217    -0.68600
O284        O  0.39831669  0.28044543  0.96868284    -0.69600
O285        O  0.39831476  0.28044500  0.53132251    -0.58200
O286        O  0.39831793  0.21953076  0.96868238    -0.66600
O287        O  0.35062813  0.21949925  0.96865687    -0.66200
O288        O  0.35062496  0.28047436  0.53134512    -0.57400
O289        O  0.35062688  0.28047453  0.96865717    -0.69900
O290        O  0.35062622  0.21949907  0.53134485    -0.68700
Cu291      Cu  0.39998956  0.24998799  0.00000249     1.04600
Cu292      Cu  0.34893249  0.24998673  0.00000096     1.02700
C293        C  0.37448581  0.20996355  0.54109199     0.97600
C294        C  0.37448668  0.29001137  0.95891173     0.96700
C295        C  0.37448418  0.29001094  0.54109227     0.88900
C296        C  0.37448830  0.20996373  0.95891120     0.95100
O297        O  0.14831639  0.03044571  0.71867982    -0.68600
O298        O  0.14831639  0.46952992  0.78131809    -0.69600
O299        O  0.14831457  0.46953123  0.71867842    -0.58200
O300        O  0.14831779  0.03044458  0.78131946    -0.66600
O301        O  0.10062794  0.03047561  0.78134470    -0.66200
O302        O  0.10062483  0.46950199  0.71865567    -0.57400
O303        O  0.10062657  0.46950060  0.78134360    -0.69900
O304        O  0.10062656  0.03047690  0.71865682    -0.68700
Cu305      Cu  0.14998946  0.49998777  0.74999895     1.04600
Cu306      Cu  0.09893243  0.49998883  0.75000028     1.04300
C307        C  0.12448629  0.04001264  0.70891003     0.97600
C308        C  0.12448632  0.45996379  0.79108899     0.96700
C309        C  0.12448397  0.45996556  0.70890843     0.88900
C310        C  0.12448802  0.04001115  0.79109064     0.95100
O311        O  0.03048685  0.39934766  0.78134361    -0.68600
O312        O  0.46950949  0.39934781  0.71865779    -0.69600
O313        O  0.46951165  0.39934706  0.78134545    -0.58200
O314        O  0.03048463  0.39934882  0.71865571    -0.66600
O315        O  0.03045502  0.35165902  0.71867901    -0.66200
O316        O  0.46954202  0.35165736  0.78132096    -0.57400
O317        O  0.46954018  0.35165800  0.71868122    -0.69900
O318        O  0.03045694  0.35165799  0.78131888    -0.68700
Cu319      Cu  0.49999812  0.40104186  0.75000070     1.04600
Cu320      Cu  0.99999859  0.34998486  0.74999997     1.04300
C321        C  0.04002351  0.37548804  0.79108935     0.97600
C322        C  0.45997321  0.37548813  0.70891147     0.96700
C323        C  0.45997575  0.37548733  0.79109178     0.88900
C324        C  0.04002076  0.37548948  0.70890861     0.95100
O325        O  0.35168043  0.03044374  0.78132237    -0.68600
O326        O  0.35168035  0.46952916  0.71868288    -0.69600
O327        O  0.35168254  0.46952928  0.78132247    -0.58200
O328        O  0.35167836  0.03044377  0.71868271    -0.66600
O329        O  0.39936819  0.03047579  0.71865682    -0.66200
O330        O  0.39937224  0.46950051  0.78134492    -0.57400
O331        O  0.39937016  0.46950048  0.71865690    -0.69900
O332        O  0.39937028  0.03047586  0.78134484    -0.68700
Cu333      Cu  0.35000729  0.49998644  0.75000266     1.04600
Cu334      Cu  0.40106429  0.49998823  0.75000080     1.04300
C335        C  0.37551051  0.04001101  0.79109202     0.97600
C336        C  0.37551037  0.45996350  0.70891158     0.96700
C337        C  0.37551316  0.45996360  0.79109212     0.88900
C338        C  0.37550783  0.04001107  0.70891141     0.95100
O339        O  0.03048492  0.10062254  0.71865555    -0.68600
O340        O  0.46951085  0.10062202  0.78134457    -0.69600
O341        O  0.46950975  0.10062258  0.71865661    -0.58200
O342        O  0.03048604  0.10062197  0.78134369    -0.66600
O343        O  0.03045609  0.14831163  0.78131995    -0.66200
O344        O  0.46954018  0.14831236  0.71868123    -0.57400
O345        O  0.46954143  0.14831184  0.78132090    -0.69900
O346        O  0.03045492  0.14831224  0.71868015    -0.68700
Cu347      Cu  0.49999792  0.09892819  0.75000007     1.04600
Cu348      Cu  0.99999819  0.14998519  0.75000058     1.04300
C349        C  0.04002111  0.12448227  0.70890934     0.97600
C350        C  0.45997507  0.12448167  0.79109131     0.96700
C351        C  0.45997333  0.12448235  0.70891086     0.88900
C352        C  0.04002241  0.12448152  0.79109024     0.95100
C353        C  0.14681702  0.12543553  0.60357980     0.06600
C354        C  0.12544804  0.14680785  0.60358006     0.06600
C355        C  0.10376840  0.14621984  0.62499973    -0.13900
C356        C  0.10317753  0.12454021  0.64641923     0.06600
C357        C  0.12454684  0.10316832  0.64641932     0.06600
C358        C  0.14622620  0.10375618  0.62499953    -0.13900
H359        H  0.16268233  0.08729772  0.62499955     0.08600
H360        H  0.08731260  0.16267792  0.62499993     0.08600
C361        C  0.37454560  0.14680775  0.60358278     0.06600
C362        C  0.35317606  0.12543599  0.60358265     0.06600
C363        C  0.35376626  0.10375655  0.62500237    -0.13900
C364        C  0.37544573  0.10316830  0.64642219     0.06600
C365        C  0.39681532  0.12454004  0.64642234     0.06600
C366        C  0.39622500  0.14621954  0.62500265    -0.13900
H367        H  0.41268124  0.16267720  0.62500268     0.08600
H368        H  0.33731020  0.08729873  0.62500219     0.08600
C369        C  0.37454966  0.14680693  0.89642149     0.06600
C370        C  0.35317999  0.12543514  0.89642164     0.06600
C371        C  0.35377032  0.10375551  0.87500209    -0.13900
C372        C  0.37544982  0.10316718  0.85358233     0.06600
C373        C  0.39681938  0.12453899  0.85358210     0.06600
C374        C  0.39622909  0.14621855  0.87500167    -0.13900
H375        H  0.41268572  0.16267666  0.87500139     0.08600
H376        H  0.33731415  0.08729763  0.87500231     0.08600
C377        C  0.35317657  0.37454055  0.60358244     0.06600
C378        C  0.37454431  0.35316701  0.60358294     0.06600
C379        C  0.39622340  0.35375352  0.62500313    -0.13900
C380        C  0.39681542  0.37543294  0.64642279     0.06600
C381        C  0.37544759  0.39680638  0.64642237     0.06600
C382        C  0.35376843  0.39621978  0.62500228    -0.13900
H383        H  0.33731342  0.41267932  0.62500189     0.08600
H384        H  0.41267875  0.33729424  0.62500315     0.08600
C385        C  0.35318107  0.37454160  0.89642249     0.06600
C386        C  0.37454901  0.35316825  0.89642229     0.06600
C387        C  0.39622825  0.35375476  0.87500231    -0.13900
C388        C  0.39682014  0.37543394  0.85358246     0.06600
C389        C  0.37545234  0.39680748  0.85358271     0.06600
C390        C  0.35377304  0.39622094  0.87500276    -0.13900
H391        H  0.33731780  0.41268020  0.87500291     0.08600
H392        H  0.41268335  0.33729523  0.87500209     0.08600
C393        C  0.14681415  0.37454607  0.60357617     0.06600
C394        C  0.12544684  0.35317201  0.60357666     0.06600
C395        C  0.10376740  0.35375828  0.62499664    -0.13900
C396        C  0.10317523  0.37543764  0.64641643     0.06600
C397        C  0.12454285  0.39681138  0.64641606     0.06600
C398        C  0.14622185  0.39622553  0.62499574    -0.13900
H399        H  0.16267659  0.41268473  0.62499569     0.08600
H400        H  0.08731270  0.33729845  0.62499718     0.08600
C401        C  0.14682014  0.37454175  0.89641832     0.06600
C402        C  0.12545277  0.35316759  0.89641784     0.06600
C403        C  0.10377357  0.35375364  0.87499772    -0.13900
C404        C  0.10318127  0.37543311  0.85357812     0.06600
C405        C  0.12454896  0.39680694  0.85357847     0.06600
C406        C  0.14622808  0.39622092  0.87499855    -0.13900
H407        H  0.16268295  0.41268095  0.87499899     0.08600
H408        H  0.08731852  0.33729393  0.87499755     0.08600
C409        C  0.14681792  0.12543425  0.89642065     0.06600
C410        C  0.12544912  0.14680658  0.89642026     0.06600
C411        C  0.10376949  0.14621850  0.87500051    -0.13900
C412        C  0.10317864  0.12453879  0.85358090     0.06600
C413        C  0.12454787  0.10316681  0.85358122     0.06600
C414        C  0.14622710  0.10375469  0.87500115    -0.13900
H415        H  0.16268283  0.08729660  0.87500135     0.08600
H416        H  0.08731395  0.16267676  0.87500016     0.08600
C417        C  0.08058504  0.12462777  0.83176634    -0.08900
C418        C  0.06194782  0.12454156  0.81331096    -0.10500
C419        C  0.08058363  0.12462909  0.66823330    -0.08900
C420        C  0.06194617  0.12454269  0.68668835    -0.10500
C421        C  0.41940938  0.12462874  0.66823629    -0.08900
C422        C  0.43804729  0.12454266  0.68669087    -0.10500
C423        C  0.43805013  0.12454171  0.81331234    -0.08900
C424        C  0.41941291  0.12462778  0.83176764    -0.10500
C425        C  0.37545012  0.06193615  0.81331280    -0.08900
C426        C  0.37536301  0.08057350  0.83176795    -0.10500
C427        C  0.37544624  0.06193665  0.68669104    -0.08900
C428        C  0.37535894  0.08057442  0.66823634    -0.10500
C429        C  0.37544985  0.43803792  0.68669126    -0.08900
C430        C  0.37536222  0.41940020  0.66823653    -0.10500
C431        C  0.37545410  0.43803829  0.81331288    -0.08900
C432        C  0.37536690  0.41940093  0.83176806    -0.10500
C433        C  0.06194533  0.37543040  0.68668713    -0.08900
C434        C  0.08058224  0.37534625  0.66823149    -0.10500
C435        C  0.06194953  0.37542805  0.81330934    -0.08900
C436        C  0.08058741  0.37534262  0.83176396    -0.10500
C437        C  0.43805074  0.37542734  0.81331267    -0.08900
C438        C  0.41941345  0.37534286  0.83176784    -0.10500
C439        C  0.43804705  0.37542815  0.68669163    -0.08900
C440        C  0.41940915  0.37534273  0.66823705    -0.10500
C441        C  0.12463360  0.08057506  0.66823406    -0.08900
C442        C  0.12454655  0.06193790  0.68668938    -0.10500
C443        C  0.12454873  0.06193617  0.81331151    -0.08900
C444        C  0.12463517  0.08057341  0.83176671    -0.10500
C445        C  0.12454669  0.43803812  0.81330922    -0.08900
C446        C  0.12463422  0.41940046  0.83176401    -0.10500
C447        C  0.12454291  0.43804097  0.68668706    -0.08900
C448        C  0.12462903  0.41940427  0.66823124    -0.10500
C449        C  0.37454583  0.18803838  0.56331285    -0.08900
C450        C  0.37463278  0.16940118  0.58176817    -0.10500
C451        C  0.37463018  0.33057366  0.58176826    -0.08900
C452        C  0.37454330  0.31193630  0.56331306    -0.10500
C453        C  0.37454707  0.31193707  0.93669148    -0.08900
C454        C  0.37463452  0.33057473  0.91823670    -0.10500
C455        C  0.37463650  0.16940066  0.91823574    -0.08900
C456        C  0.37454943  0.18803827  0.93669064    -0.10500
C457        C  0.31194611  0.37454783  0.56331243    -0.08900
C458        C  0.33058337  0.37463166  0.58176765    -0.10500
C459        C  0.16940818  0.37463693  0.58176236    -0.08900
C460        C  0.18804655  0.37455193  0.56330832    -0.10500
C461        C  0.16941317  0.37463350  0.91823317    -0.08900
C462        C  0.18805048  0.37454970  0.93668833    -0.10500
C463        C  0.33058727  0.37463208  0.91823667    -0.08900
C464        C  0.31194940  0.37454715  0.93669131    -0.10500
C465        C  0.12536273  0.33057761  0.58176308    -0.08900
C466        C  0.12545150  0.31193931  0.56330890    -0.10500
C467        C  0.12536195  0.16940186  0.58176603    -0.08900
C468        C  0.12544979  0.18803958  0.56331122    -0.10500
C469        C  0.12545180  0.18803829  0.93668920    -0.08900
C470        C  0.12536338  0.16940066  0.91823425    -0.10500
C471        C  0.12536773  0.33057396  0.91823236    -0.08900
C472        C  0.12545516  0.31193661  0.93668757    -0.10500
C473        C  0.18804803  0.12543121  0.56331035    -0.08900
C474        C  0.16941050  0.12534590  0.58176530    -0.10500
C475        C  0.33058287  0.12534653  0.58176795    -0.08900
C476        C  0.31194585  0.12543209  0.56331250    -0.10500
C477        C  0.33058625  0.12534604  0.91823592    -0.08900
C478        C  0.31194833  0.12543165  0.93669053    -0.10500
C479        C  0.18804923  0.12543028  0.93668958    -0.08900
C480        C  0.16941160  0.12534478  0.91823484    -0.10500
O481        O  0.21951078  0.64935029  0.46865602    -0.68600
O482        O  0.28048495  0.64935117  0.03134461    -0.69600
O483        O  0.28048585  0.64935093  0.46865672    -0.58200
O484        O  0.21950989  0.64935067  0.03134372    -0.66600
O485        O  0.21954028  0.60166087  0.03131989    -0.66200
O486        O  0.28045592  0.60166123  0.46868097    -0.57400
O487        O  0.28045490  0.60166145  0.03132074    -0.69900
O488        O  0.21954118  0.60166044  0.46868030    -0.68700
Cu489      Cu  0.24999786  0.65104479  0.00000026     1.04600
Cu490      Cu  0.24999812  0.59998774  0.50000047     1.04300
C491        C  0.20997468  0.62549049  0.45890988     0.97600
C492        C  0.29002100  0.62549169  0.04109127     0.96700
C493        C  0.29002245  0.62549138  0.45891071     0.88900
C494        C  0.20997368  0.62549102  0.04109005     0.95100
O495        O  0.10168247  0.78044656  0.03131818    -0.68600
O496        O  0.10168265  0.71953094  0.46867985    -0.69600
O497        O  0.10168135  0.71953190  0.03131942    -0.58200
O498        O  0.10168417  0.78044545  0.46867869    -0.66600
O499        O  0.14937398  0.78047509  0.46865552    -0.66200
O500        O  0.14937113  0.71950077  0.03134479    -0.57400
O501        O  0.14937245  0.71949954  0.46865640    -0.69900
O502        O  0.14937226  0.78047638  0.03134373    -0.68700
Cu503      Cu  0.10000954  0.74998874  0.99999899     1.04600
Cu504      Cu  0.15106658  0.74998793  0.00000020     1.04300
C505        C  0.12551237  0.79001305  0.04108908     0.97600
C506        C  0.12551259  0.70996391  0.45890973     0.96700
C507        C  0.12551099  0.70996511  0.04109060     0.88900
C508        C  0.12551465  0.79001143  0.45890857     0.95100
O509        O  0.28048608  0.85062893  0.46865762    -0.68600
O510        O  0.21950915  0.85063150  0.03134346    -0.69600
O511        O  0.21951107  0.85063048  0.46865600    -0.58200
O512        O  0.28048415  0.85062943  0.03134529    -0.66600
O513        O  0.28045576  0.89831926  0.03132087    -0.66200
O514        O  0.21954253  0.89832031  0.46867918    -0.57400
O515        O  0.21954081  0.89832122  0.03131892    -0.69900
O516        O  0.28045745  0.89831865  0.46868103    -0.68700
Cu517      Cu  0.24999756  0.84893607  0.00000063     1.04600
Cu518      Cu  0.24999921  0.89999314  0.00000001     1.04300
C519        C  0.29002335  0.87448815  0.45891124     0.97600
C520        C  0.20997315  0.87449146  0.04108899     0.96700
C521        C  0.20997563  0.87449014  0.45890915     0.88900
C522        C  0.29002111  0.87448881  0.04109157     0.95100
O523        O  0.39831611  0.71953056  0.03132213    -0.68600
O524        O  0.39831678  0.78044544  0.46868289    -0.69600
O525        O  0.39831467  0.78044512  0.03132244    -0.58200
O526        O  0.39831802  0.71953074  0.46868245    -0.66600
O527        O  0.35062823  0.71949937  0.46865681    -0.66200
O528        O  0.35062495  0.78047427  0.03134514    -0.57400
O529        O  0.35062697  0.78047454  0.46865716    -0.69900
O530        O  0.35062632  0.71949904  0.03134496    -0.68700
Cu531      Cu  0.39998958  0.74998797  0.50000252     1.04600
Cu532      Cu  0.34893255  0.74998675  0.50000093     1.02700
C533        C  0.37448595  0.70996354  0.04109198     0.97600
C534        C  0.37448679  0.79001142  0.45891182     0.96700
C535        C  0.37448415  0.79001105  0.04109215     0.88900
C536        C  0.37448839  0.70996369  0.45891128     0.95100
O537        O  0.14831627  0.53044566  0.21867988    -0.68600
O538        O  0.14831632  0.96953000  0.28131809    -0.69600
O539        O  0.14831452  0.96953126  0.21867845    -0.58200
O540        O  0.14831770  0.53044445  0.28131955    -0.66600
O541        O  0.10062786  0.53047557  0.28134472    -0.66200
O542        O  0.10062477  0.96950187  0.21865577    -0.57400
O543        O  0.10062656  0.96950061  0.28134357    -0.69900
O544        O  0.10062655  0.53047693  0.21865690    -0.68700
Cu545      Cu  0.14998945  0.99998782  0.24999896     1.04600
Cu546      Cu  0.09893240  0.99998879  0.25000031     1.04300
C547        C  0.12448626  0.54001266  0.20891008     0.97600
C548        C  0.12448629  0.95996386  0.29108904     0.96700
C549        C  0.12448392  0.95996559  0.20890842     0.88900
C550        C  0.12448794  0.54001109  0.29109067     0.95100
O551        O  0.03048673  0.89934772  0.28134371    -0.68600
O552        O  0.46950953  0.89934771  0.21865781    -0.69600
O553        O  0.46951168  0.89934714  0.28134552    -0.58200
O554        O  0.03048460  0.89934878  0.21865581    -0.66600
O555        O  0.03045493  0.85165907  0.21867907    -0.66200
O556        O  0.46954208  0.85165732  0.28132093    -0.57400
O557        O  0.46954020  0.85165802  0.21868123    -0.69900
O558        O  0.03045685  0.85165793  0.28131891    -0.68700
Cu559      Cu  0.49999817  0.90104187  0.25000071     1.04600
Cu560      Cu  0.99999854  0.84998484  0.25000004     1.04300
C561        C  0.04002340  0.87548803  0.29108940     0.97600
C562        C  0.45997315  0.87548808  0.20891153     0.96700
C563        C  0.45997580  0.87548734  0.29109179     0.88900
C564        C  0.04002070  0.87548949  0.20890863     0.95100
O565        O  0.35168046  0.53044375  0.28132237    -0.68600
O566        O  0.35168033  0.96952916  0.21868296    -0.69600
O567        O  0.35168253  0.96952922  0.28132256    -0.58200
O568        O  0.35167832  0.53044380  0.21868278    -0.66600
O569        O  0.39936812  0.53047572  0.21865685    -0.66200
O570        O  0.39937233  0.96950057  0.28134499    -0.57400
O571        O  0.39937008  0.96950057  0.21865688    -0.69900
O572        O  0.39937018  0.53047579  0.28134489    -0.68700
Cu573      Cu  0.35000725  0.99998640  0.25000271     1.04600
Cu574      Cu  0.40106431  0.99998827  0.25000081     1.04300
C575        C  0.37551050  0.54001105  0.29109203     0.97600
C576        C  0.37551034  0.95996350  0.20891162     0.96700
C577        C  0.37551321  0.95996355  0.29109215     0.88900
C578        C  0.37550779  0.54001108  0.20891145     0.95100
O579        O  0.03048505  0.60062252  0.21865555    -0.68600
O580        O  0.46951080  0.60062208  0.28134459    -0.69600
O581        O  0.46950965  0.60062250  0.21865668    -0.58200
O582        O  0.03048608  0.60062192  0.28134374    -0.66600
O583        O  0.03045600  0.64831170  0.28131996    -0.66200
O584        O  0.46954022  0.64831230  0.21868124    -0.57400
O585        O  0.46954145  0.64831180  0.28132090    -0.69900
O586        O  0.03045486  0.64831234  0.21868019    -0.68700
Cu587      Cu  0.49999787  0.59892816  0.25000009     1.04600
Cu588      Cu  0.99999815  0.64998521  0.25000057     1.04300
C589        C  0.04002105  0.62448234  0.20890930     0.97600
C590        C  0.45997505  0.62448170  0.29109135     0.96700
C591        C  0.45997341  0.62448228  0.20891081     0.88900
C592        C  0.04002238  0.62448154  0.29109026     0.95100
C593        C  0.14681698  0.62543562  0.10357979     0.06600
C594        C  0.12544794  0.64680794  0.10358003     0.06600
C595        C  0.10376843  0.64621980  0.12499970    -0.13900
C596        C  0.10317752  0.62454036  0.14641932     0.06600
C597        C  0.12454684  0.60316838  0.14641931     0.06600
C598        C  0.14622623  0.60375628  0.12499952    -0.13900
H599        H  0.16268248  0.58729798  0.12499950     0.08600
H600        H  0.08731195  0.66267857  0.12499990     0.08600
C601        C  0.37454565  0.64680782  0.10358281     0.06600
C602        C  0.35317605  0.62543596  0.10358264     0.06600
C603        C  0.35376621  0.60375662  0.12500243    -0.13900
C604        C  0.37544561  0.60316834  0.14642223     0.06600
C605        C  0.39681535  0.62454012  0.14642235     0.06600
C606        C  0.39622498  0.64621963  0.12500270    -0.13900
H607        H  0.41268153  0.66267778  0.12500278     0.08600
H608        H  0.33730966  0.58729850  0.12500233     0.08600
C609        C  0.37454957  0.64680690  0.39642153     0.06600
C610        C  0.35317997  0.62543511  0.39642168     0.06600
C611        C  0.35377031  0.60375554  0.37500203    -0.13900
C612        C  0.37544980  0.60316729  0.35358227     0.06600
C613        C  0.39681936  0.62453909  0.35358212     0.06600
C614        C  0.39622899  0.64621862  0.37500175    -0.13900
H615        H  0.41268531  0.66267683  0.37500158     0.08600
H616        H  0.33731425  0.58729775  0.37500214     0.08600
C617        C  0.35317664  0.87454051  0.10358249     0.06600
C618        C  0.37454440  0.85316706  0.10358287     0.06600
C619        C  0.39622352  0.85375346  0.12500316    -0.13900
C620        C  0.39681539  0.87543297  0.14642284     0.06600
C621        C  0.37544763  0.89680639  0.14642238     0.06600
C622        C  0.35376845  0.89621989  0.12500226    -0.13900
H623        H  0.33731380  0.91267900  0.12500187     0.08600
H624        H  0.41267835  0.83729454  0.12500336     0.08600
C625        C  0.35318105  0.87454150  0.39642252     0.06600
C626        C  0.37454900  0.85316828  0.39642240     0.06600
C627        C  0.39622826  0.85375477  0.37500238    -0.13900
C628        C  0.39682010  0.87543398  0.35358247     0.06600
C629        C  0.37545234  0.89680741  0.35358268     0.06600
C630        C  0.35377299  0.89622086  0.37500272    -0.13900
H631        H  0.33731795  0.91267974  0.37500277     0.08600
H632        H  0.41268324  0.83729585  0.37500242     0.08600
C633        C  0.14681426  0.87454617  0.10357620     0.06600
C634        C  0.12544695  0.85317207  0.10357666     0.06600
C635        C  0.10376749  0.85375828  0.12499658    -0.13900
C636        C  0.10317529  0.87543768  0.14641634     0.06600
C637        C  0.12454290  0.89681147  0.14641605     0.06600
C638        C  0.14622192  0.89622555  0.12499583    -0.13900
H639        H  0.16267711  0.91268505  0.12499593     0.08600
H640        H  0.08731307  0.83729876  0.12499696     0.08600
C641        C  0.14682003  0.87454168  0.39641835     0.06600
C642        C  0.12545276  0.85316753  0.39641787     0.06600
C643        C  0.10377356  0.85375369  0.37499776    -0.13900
C644        C  0.10318124  0.87543309  0.35357809     0.06600
C645        C  0.12454884  0.89680683  0.35357837     0.06600
C646        C  0.14622795  0.89622086  0.37499847    -0.13900
H647        H  0.16268251  0.91268024  0.37499869     0.08600
H648        H  0.08731859  0.83729399  0.37499756     0.08600
C649        C  0.14681793  0.62543410  0.39642065     0.06600
C650        C  0.12544899  0.64680648  0.39642031     0.06600
C651        C  0.10376943  0.64621833  0.37500057    -0.13900
C652        C  0.10317864  0.62453870  0.35358099     0.06600
C653        C  0.12454796  0.60316669  0.35358131     0.06600
C654        C  0.14622709  0.60375465  0.37500117    -0.13900
H655        H  0.16268363  0.58729587  0.37500125     0.08600
H656        H  0.08731340  0.66267680  0.37500022     0.08600
C657        C  0.08058502  0.62462761  0.33176643    -0.08900
C658        C  0.06194776  0.62454151  0.31331105    -0.10500
C659        C  0.08058366  0.62462908  0.16823339    -0.08900
C660        C  0.06194621  0.62454269  0.18668845    -0.10500
C661        C  0.41940936  0.62462874  0.16823636    -0.08900
C662        C  0.43804737  0.62454254  0.18669084    -0.10500
C663        C  0.43805007  0.62454172  0.31331238    -0.08900
C664        C  0.41941292  0.62462796  0.33176774    -0.10500
C665        C  0.37545018  0.56193629  0.31331276    -0.08900
C666        C  0.37536287  0.58057357  0.33176798    -0.10500
C667        C  0.37544622  0.56193673  0.18669109    -0.08900
C668        C  0.37535881  0.58057446  0.16823633    -0.10500
C669        C  0.37544997  0.93803790  0.18669127    -0.08900
C670        C  0.37536223  0.91940023  0.16823650    -0.10500
C671        C  0.37545406  0.93803826  0.31331295    -0.08900
C672        C  0.37536692  0.91940089  0.33176811    -0.10500
C673        C  0.06194534  0.87543042  0.18668712    -0.08900
C674        C  0.08058216  0.87534611  0.16823132    -0.10500
C675        C  0.06194950  0.87542802  0.31330938    -0.08900
C676        C  0.08058738  0.87534255  0.33176402    -0.10500
C677        C  0.43805075  0.87542736  0.31331269    -0.08900
C678        C  0.41941342  0.87534288  0.33176784    -0.10500
C679        C  0.43804701  0.87542808  0.18669166    -0.08900
C680        C  0.41940914  0.87534264  0.16823704    -0.10500
C681        C  0.12463367  0.58057510  0.16823402    -0.08900
C682        C  0.12454665  0.56193801  0.18668943    -0.10500
C683        C  0.12454875  0.56193611  0.31331157    -0.08900
C684        C  0.12463511  0.58057339  0.33176674    -0.10500
C685        C  0.12454673  0.93803804  0.31330920    -0.08900
C686        C  0.12463423  0.91940042  0.33176403    -0.10500
C687        C  0.12454281  0.93804101  0.18668702    -0.08900
C688        C  0.12462900  0.91940421  0.16823130    -0.10500
C689        C  0.37454595  0.68803840  0.06331286    -0.08900
C690        C  0.37463278  0.66940122  0.08176819    -0.10500
C691        C  0.37463014  0.83057363  0.08176818    -0.08900
C692        C  0.37454339  0.81193626  0.06331300    -0.10500
C693        C  0.37454725  0.81193708  0.43669157    -0.08900
C694        C  0.37463459  0.83057472  0.41823679    -0.10500
C695        C  0.37463654  0.66940065  0.41823572    -0.08900
C696        C  0.37454953  0.68803828  0.43669060    -0.10500
C697        C  0.31194614  0.87454782  0.06331249    -0.08900
C698        C  0.33058346  0.87463178  0.08176766    -0.10500
C699        C  0.16940827  0.87463703  0.08176236    -0.08900
C700        C  0.18804660  0.87455203  0.06330829    -0.10500
C701        C  0.16941320  0.87463360  0.41823318    -0.08900
C702        C  0.18805049  0.87454973  0.43668839    -0.10500
C703        C  0.33058729  0.87463197  0.41823673    -0.08900
C704        C  0.31194943  0.87454722  0.43669136    -0.10500
C705        C  0.12536270  0.83057766  0.08176303    -0.08900
C706        C  0.12545146  0.81193938  0.06330880    -0.10500
C707        C  0.12536193  0.66940194  0.08176601    -0.08900
C708        C  0.12544975  0.68803966  0.06331122    -0.10500
C709        C  0.12545176  0.68803826  0.43668924    -0.08900
C710        C  0.12536340  0.66940068  0.41823424    -0.10500
C711        C  0.12536762  0.83057399  0.41823247    -0.08900
C712        C  0.12545518  0.81193659  0.43668764    -0.10500
C713        C  0.18804805  0.62543123  0.06331038    -0.08900
C714        C  0.16941046  0.62534601  0.08176529    -0.10500
C715        C  0.33058286  0.62534660  0.08176788    -0.08900
C716        C  0.31194589  0.62543209  0.06331236    -0.10500
C717        C  0.33058616  0.62534608  0.41823590    -0.08900
C718        C  0.31194834  0.62543157  0.43669059    -0.10500
C719        C  0.18804922  0.62543031  0.43668952    -0.08900
C720        C  0.16941154  0.62534481  0.41823482    -0.10500
O721        O  0.21951074  0.64935030  0.96865609    -0.68600
O722        O  0.28048494  0.64935121  0.53134460    -0.69600
O723        O  0.28048585  0.64935092  0.96865675    -0.58200
O724        O  0.21950991  0.64935059  0.53134366    -0.66600
O725        O  0.21954030  0.60166086  0.53131987    -0.66200
O726        O  0.28045597  0.60166112  0.96868100    -0.57400
O727        O  0.28045490  0.60166149  0.53132072    -0.69900
O728        O  0.21954113  0.60166045  0.96868028    -0.68700
Cu729      Cu  0.24999787  0.65104478  0.50000022     1.04600
Cu730      Cu  0.24999812  0.59998772  0.00000047     1.04300
C731        C  0.20997475  0.62549050  0.95890980     0.97600
C732        C  0.29002098  0.62549173  0.54109124     0.96700
C733        C  0.29002247  0.62549133  0.95891074     0.88900
C734        C  0.20997362  0.62549098  0.54108996     0.95100
O735        O  0.10168242  0.78044655  0.53131820    -0.68600
O736        O  0.10168264  0.71953097  0.96867983    -0.69600
O737        O  0.10168138  0.71953184  0.53131947    -0.58200
O738        O  0.10168415  0.78044545  0.96867864    -0.66600
O739        O  0.14937396  0.78047518  0.96865554    -0.66200
O740        O  0.14937117  0.71950068  0.53134471    -0.57400
O741        O  0.14937242  0.71949966  0.96865644    -0.69900
O742        O  0.14937219  0.78047633  0.53134374    -0.68700
Cu743      Cu  0.10000955  0.74998872  0.49999901     1.04600
Cu744      Cu  0.15106659  0.74998789  0.50000017     1.04300
C745        C  0.12551233  0.79001305  0.54108906     0.97600
C746        C  0.12551260  0.70996385  0.95890982     0.96700
C747        C  0.12551103  0.70996503  0.54109055     0.88900
C748        C  0.12551462  0.79001146  0.95890854     0.95100
O749        O  0.28048610  0.85062882  0.96865760    -0.68600
O750        O  0.21950911  0.85063156  0.53134342    -0.69600
O751        O  0.21951108  0.85063048  0.96865606    -0.58200
O752        O  0.28048416  0.85062946  0.53134526    -0.66600
O753        O  0.28045579  0.89831929  0.53132082    -0.66200
O754        O  0.21954255  0.89832030  0.96867920    -0.57400
O755        O  0.21954081  0.89832128  0.53131889    -0.69900
O756        O  0.28045744  0.89831864  0.96868109    -0.68700
Cu757      Cu  0.24999755  0.84893610  0.50000061     1.04600
Cu758      Cu  0.24999921  0.89999315  0.49999998     1.04300
C759        C  0.29002336  0.87448809  0.95891126     0.97600
C760        C  0.20997312  0.87449152  0.54108895     0.96700
C761        C  0.20997562  0.87449014  0.95890920     0.88900
C762        C  0.29002107  0.87448884  0.54109158     0.95100
O763        O  0.39831612  0.71953057  0.53132218    -0.68600
O764        O  0.39831673  0.78044537  0.96868280    -0.69600
O765        O  0.39831466  0.78044508  0.53132249    -0.58200
O766        O  0.39831798  0.71953072  0.96868238    -0.66600
O767        O  0.35062817  0.71949926  0.96865685    -0.66200
O768        O  0.35062497  0.78047429  0.53134515    -0.57400
O769        O  0.35062691  0.78047449  0.96865718    -0.69900
O770        O  0.35062632  0.71949902  0.53134483    -0.68700
Cu771      Cu  0.39998957  0.74998798  0.00000249     1.04600
Cu772      Cu  0.34893252  0.74998674  0.00000098     1.02700
C773        C  0.37448593  0.70996359  0.54109199     0.97600
C774        C  0.37448673  0.79001135  0.95891175     0.96700
C775        C  0.37448413  0.79001097  0.54109226     0.88900
C776        C  0.37448833  0.70996364  0.95891127     0.95100
O777        O  0.14831634  0.53044562  0.71867989    -0.68600
O778        O  0.14831644  0.96953003  0.78131809    -0.69600
O779        O  0.14831460  0.96953127  0.71867844    -0.58200
O780        O  0.14831773  0.53044448  0.78131950    -0.66600
O781        O  0.10062800  0.53047561  0.78134466    -0.66200
O782        O  0.10062474  0.96950194  0.71865570    -0.57400
O783        O  0.10062659  0.96950054  0.78134361    -0.69900
O784        O  0.10062662  0.53047695  0.71865684    -0.68700
Cu785      Cu  0.14998951  0.99998782  0.74999892     1.04600
Cu786      Cu  0.09893239  0.99998879  0.75000030     1.04300
C787        C  0.12448632  0.54001261  0.70891001     0.97600
C788        C  0.12448637  0.95996386  0.79108904     0.96700
C789        C  0.12448394  0.95996555  0.70890846     0.88900
C790        C  0.12448803  0.54001115  0.79109063     0.95100
O791        O  0.03048674  0.89934775  0.78134367    -0.68600
O792        O  0.46950947  0.89934774  0.71865777    -0.69600
O793        O  0.46951167  0.89934717  0.78134550    -0.58200
O794        O  0.03048457  0.89934879  0.71865577    -0.66600
O795        O  0.03045496  0.85165898  0.71867905    -0.66200
O796        O  0.46954207  0.85165734  0.78132090    -0.57400
O797        O  0.46954020  0.85165794  0.71868121    -0.69900
O798        O  0.03045684  0.85165797  0.78131890    -0.68700
Cu799      Cu  0.49999814  0.90104190  0.75000070     1.04600
Cu800      Cu  0.99999855  0.84998482  0.74999998     1.04300
C801        C  0.04002339  0.87548807  0.79108938     0.97600
C802        C  0.45997311  0.87548805  0.70891156     0.96700
C803        C  0.45997578  0.87548737  0.79109175     0.88900
C804        C  0.04002074  0.87548945  0.70890867     0.95100
O805        O  0.35168043  0.53044379  0.78132236    -0.68600
O806        O  0.35168031  0.96952910  0.71868291    -0.69600
O807        O  0.35168246  0.96952923  0.78132249    -0.58200
O808        O  0.35167838  0.53044381  0.71868273    -0.66600
O809        O  0.39936807  0.53047574  0.71865676    -0.66200
O810        O  0.39937227  0.96950057  0.78134491    -0.57400
O811        O  0.39937004  0.96950052  0.71865687    -0.69900
O812        O  0.39937016  0.53047582  0.78134482    -0.68700
Cu813      Cu  0.35000724  0.99998640  0.75000265     1.04600
Cu814      Cu  0.40106432  0.99998821  0.75000078     1.04300
C815        C  0.37551047  0.54001103  0.79109201     0.97600
C816        C  0.37551031  0.95996346  0.70891159     0.96700
C817        C  0.37551316  0.95996362  0.79109214     0.88900
C818        C  0.37550780  0.54001116  0.70891143     0.95100
O819        O  0.03048496  0.60062246  0.71865554    -0.68600
O820        O  0.46951087  0.60062209  0.78134457    -0.69600
O821        O  0.46950977  0.60062250  0.71865663    -0.58200
O822        O  0.03048607  0.60062193  0.78134368    -0.66600
O823        O  0.03045602  0.64831167  0.78131996    -0.66200
O824        O  0.46954021  0.64831228  0.71868122    -0.57400
O825        O  0.46954145  0.64831179  0.78132085    -0.69900
O826        O  0.03045486  0.64831228  0.71868011    -0.68700
Cu827      Cu  0.49999792  0.59892816  0.75000007     1.04600
Cu828      Cu  0.99999816  0.64998518  0.75000056     1.04300
C829        C  0.04002103  0.62448226  0.70890929     0.97600
C830        C  0.45997505  0.62448168  0.79109130     0.96700
C831        C  0.45997339  0.62448227  0.70891083     0.88900
C832        C  0.04002243  0.62448153  0.79109021     0.95100
C833        C  0.14681697  0.62543566  0.60357982     0.06600
C834        C  0.12544796  0.64680797  0.60358004     0.06600
C835        C  0.10376844  0.64621981  0.62499972    -0.13900
C836        C  0.10317745  0.62454032  0.64641927     0.06600
C837        C  0.12454680  0.60316844  0.64641933     0.06600
C838        C  0.14622621  0.60375628  0.62499955    -0.13900
H839        H  0.16268216  0.58729830  0.62499968     0.08600
H840        H  0.08731195  0.66267852  0.62499989     0.08600
C841        C  0.37454559  0.64680777  0.60358282     0.06600
C842        C  0.35317596  0.62543590  0.60358264     0.06600
C843        C  0.35376624  0.60375662  0.62500241    -0.13900
C844        C  0.37544558  0.60316828  0.64642221     0.06600
C845        C  0.39681528  0.62454013  0.64642237     0.06600
C846        C  0.39622492  0.64621958  0.62500271    -0.13900
H847        H  0.41268149  0.66267776  0.62500280     0.08600
H848        H  0.33730946  0.58729795  0.62500218     0.08600
C849        C  0.37454952  0.64680685  0.89642150     0.06600
C850        C  0.35317986  0.62543501  0.89642166     0.06600
C851        C  0.35377031  0.60375552  0.87500211    -0.13900
C852        C  0.37544967  0.60316717  0.85358231     0.06600
C853        C  0.39681930  0.62453902  0.85358215     0.06600
C854        C  0.39622891  0.64621857  0.87500169    -0.13900
H855        H  0.41268519  0.66267689  0.87500129     0.08600
H856        H  0.33731355  0.58729697  0.87500230     0.08600
C857        C  0.35317657  0.87454054  0.60358247     0.06600
C858        C  0.37454432  0.85316698  0.60358292     0.06600
C859        C  0.39622343  0.85375342  0.62500312    -0.13900
C860        C  0.39681539  0.87543285  0.64642282     0.06600
C861        C  0.37544760  0.89680636  0.64642233     0.06600
C862        C  0.35376842  0.89621979  0.62500228    -0.13900
H863        H  0.33731340  0.91267932  0.62500190     0.08600
H864        H  0.41267865  0.83729416  0.62500327     0.08600
C865        C  0.35318105  0.87454154  0.89642242     0.06600
C866        C  0.37454901  0.85316826  0.89642231     0.06600
C867        C  0.39622818  0.85375475  0.87500234    -0.13900
C868        C  0.39682011  0.87543389  0.85358246     0.06600
C869        C  0.37545235  0.89680742  0.85358270     0.06600
C870        C  0.35377306  0.89622087  0.87500267    -0.13900
H871        H  0.33731778  0.91268018  0.87500274     0.08600
H872        H  0.41268337  0.83729520  0.87500220     0.08600
C873        C  0.14681421  0.87454620  0.60357618     0.06600
C874        C  0.12544695  0.85317205  0.60357669     0.06600
C875        C  0.10376746  0.85375833  0.62499661    -0.13900
C876        C  0.10317532  0.87543772  0.64641640     0.06600
C877        C  0.12454289  0.89681150  0.64641604     0.06600
C878        C  0.14622191  0.89622558  0.62499583    -0.13900
H879        H  0.16267702  0.91268503  0.62499591     0.08600
H880        H  0.08731319  0.83729871  0.62499722     0.08600
C881        C  0.14682006  0.87454169  0.89641835     0.06600
C882        C  0.12545283  0.85316755  0.89641785     0.06600
C883        C  0.10377354  0.85375362  0.87499775    -0.13900
C884        C  0.10318128  0.87543313  0.85357806     0.06600
C885        C  0.12454884  0.89680692  0.85357840     0.06600
C886        C  0.14622801  0.89622088  0.87499847    -0.13900
H887        H  0.16268258  0.91268032  0.87499875     0.08600
H888        H  0.08731908  0.83729415  0.87499748     0.08600
C889        C  0.14681795  0.62543416  0.89642065     0.06600
C890        C  0.12544906  0.64680651  0.89642026     0.06600
C891        C  0.10376948  0.64621837  0.87500053    -0.13900
C892        C  0.10317859  0.62453873  0.85358095     0.06600
C893        C  0.12454790  0.60316678  0.85358122     0.06600
C894        C  0.14622706  0.60375468  0.87500113    -0.13900
H895        H  0.16268312  0.58729618  0.87500130     0.08600
H896        H  0.08731346  0.66267686  0.87500025     0.08600
C897        C  0.08058507  0.62462765  0.83176639    -0.08900
C898        C  0.06194780  0.62454157  0.81331104    -0.10500
C899        C  0.08058359  0.62462909  0.66823337    -0.08900
C900        C  0.06194614  0.62454270  0.68668843    -0.10500
C901        C  0.41940932  0.62462880  0.66823634    -0.08900
C902        C  0.43804729  0.62454259  0.68669088    -0.10500
C903        C  0.43805004  0.62454173  0.81331232    -0.08900
C904        C  0.41941287  0.62462796  0.83176770    -0.10500
C905        C  0.37545014  0.56193621  0.81331271    -0.08900
C906        C  0.37536293  0.58057350  0.83176793    -0.10500
C907        C  0.37544629  0.56193671  0.68669103    -0.08900
C908        C  0.37535881  0.58057444  0.66823631    -0.10500
C909        C  0.37544991  0.93803787  0.68669128    -0.08900
C910        C  0.37536220  0.91940016  0.66823653    -0.10500
C911        C  0.37545412  0.93803824  0.81331290    -0.08900
C912        C  0.37536689  0.91940090  0.83176812    -0.10500
C913        C  0.06194533  0.87543039  0.68668711    -0.08900
C914        C  0.08058225  0.87534618  0.66823143    -0.10500
C915        C  0.06194942  0.87542805  0.81330939    -0.08900
C916        C  0.08058735  0.87534257  0.83176398    -0.10500
C917        C  0.43805072  0.87542739  0.81331265    -0.08900
C918        C  0.41941341  0.87534283  0.83176783    -0.10500
C919        C  0.43804703  0.87542809  0.68669168    -0.08900
C920        C  0.41940915  0.87534264  0.66823708    -0.10500
C921        C  0.12463366  0.58057513  0.66823402    -0.08900
C922        C  0.12454655  0.56193795  0.68668935    -0.10500
C923        C  0.12454881  0.56193614  0.81331153    -0.08900
C924        C  0.12463523  0.58057340  0.83176671    -0.10500
C925        C  0.12454668  0.93803812  0.81330920    -0.08900
C926        C  0.12463423  0.91940048  0.83176400    -0.10500
C927        C  0.12454286  0.93804097  0.68668703    -0.08900
C928        C  0.12462907  0.91940424  0.66823125    -0.10500
C929        C  0.37454589  0.68803834  0.56331280    -0.08900
C930        C  0.37463273  0.66940119  0.58176818    -0.10500
C931        C  0.37463012  0.83057361  0.58176825    -0.08900
C932        C  0.37454327  0.81193630  0.56331302    -0.10500
C933        C  0.37454718  0.81193705  0.93669147    -0.08900
C934        C  0.37463451  0.83057472  0.91823668    -0.10500
C935        C  0.37463650  0.66940061  0.91823573    -0.08900
C936        C  0.37454944  0.68803820  0.93669066    -0.10500
C937        C  0.31194614  0.87454783  0.56331247    -0.08900
C938        C  0.33058343  0.87463170  0.58176766    -0.10500
C939        C  0.16940821  0.87463702  0.58176230    -0.08900
C940        C  0.18804655  0.87455202  0.56330824    -0.10500
C941        C  0.16941317  0.87463357  0.91823321    -0.08900
C942        C  0.18805048  0.87454976  0.93668838    -0.10500
C943        C  0.33058733  0.87463197  0.91823669    -0.08900
C944        C  0.31194942  0.87454714  0.93669130    -0.10500
C945        C  0.12536268  0.83057765  0.58176301    -0.08900
C946        C  0.12545149  0.81193936  0.56330879    -0.10500
C947        C  0.12536191  0.66940193  0.58176597    -0.08900
C948        C  0.12544976  0.68803966  0.56331119    -0.10500
C949        C  0.12545182  0.68803824  0.93668918    -0.08900
C950        C  0.12536334  0.66940064  0.91823418    -0.10500
C951        C  0.12536764  0.83057401  0.91823246    -0.08900
C952        C  0.12545514  0.81193660  0.93668760    -0.10500
C953        C  0.18804805  0.62543118  0.56331040    -0.08900
C954        C  0.16941046  0.62534596  0.58176532    -0.10500
C955        C  0.33058279  0.62534661  0.58176784    -0.08900
C956        C  0.31194580  0.62543213  0.56331235    -0.10500
C957        C  0.33058616  0.62534605  0.91823587    -0.08900
C958        C  0.31194832  0.62543153  0.93669053    -0.10500
C959        C  0.18804924  0.62543030  0.93668957    -0.08900
C960        C  0.16941159  0.62534482  0.91823486    -0.10500
O961        O  0.71951081  0.14935026  0.46865605    -0.68600
O962        O  0.78048497  0.14935121  0.03134454    -0.69600
O963        O  0.78048587  0.14935094  0.46865674    -0.58200
O964        O  0.71950991  0.14935058  0.03134370    -0.66600
O965        O  0.71954025  0.10166088  0.03131990    -0.66200
O966        O  0.78045600  0.10166114  0.46868106    -0.57400
O967        O  0.78045495  0.10166149  0.03132075    -0.69900
O968        O  0.71954119  0.10166044  0.46868041    -0.68700
Cu969      Cu  0.74999787  0.15104476  0.00000022     1.04600
Cu970      Cu  0.74999815  0.09998773  0.50000054     1.04300
C971        C  0.70997468  0.12549047  0.45890995     0.97600
C972        C  0.79002100  0.12549174  0.04109127     0.96700
C973        C  0.79002239  0.12549134  0.45891069     0.88900
C974        C  0.70997370  0.12549099  0.04109008     0.95100
O975        O  0.60168252  0.28044657  0.03131817    -0.68600
O976        O  0.60168261  0.21953098  0.46867985    -0.69600
O977        O  0.60168141  0.21953191  0.03131939    -0.58200
O978        O  0.60168418  0.28044546  0.46867864    -0.66600
O979        O  0.64937399  0.28047508  0.46865552    -0.66200
O980        O  0.64937119  0.21950067  0.03134474    -0.57400
O981        O  0.64937242  0.21949957  0.46865636    -0.69900
O982        O  0.64937231  0.28047628  0.03134374    -0.68700
Cu983      Cu  0.60000959  0.24998875  0.99999898     1.04600
Cu984      Cu  0.65106663  0.24998787  0.00000019     1.04300
C985        C  0.62551244  0.29001305  0.04108906     0.97600
C986        C  0.62551257  0.20996384  0.45890981     0.96700
C987        C  0.62551103  0.20996504  0.04109055     0.88900
C988        C  0.62551467  0.29001148  0.45890859     0.95100
O989        O  0.78048614  0.35062886  0.46865762    -0.68600
O990        O  0.71950920  0.35063150  0.03134341    -0.69600
O991        O  0.71951112  0.35063051  0.46865599    -0.58200
O992        O  0.78048419  0.35062946  0.03134529    -0.66600
O993        O  0.78045567  0.39831917  0.03132085    -0.66200
O994        O  0.71954246  0.39832033  0.46867919    -0.57400
O995        O  0.71954073  0.39832122  0.03131890    -0.69900
O996        O  0.78045737  0.39831865  0.46868103    -0.68700
Cu997      Cu  0.74999760  0.34893609  0.00000063     1.04600
Cu998      Cu  0.74999915  0.39999310  0.00000002     1.04300
C999        C  0.79002332  0.37448814  0.45891122     0.97600
C1000       C  0.70997321  0.37449144  0.04108904     0.96700
C1001       C  0.70997564  0.37449016  0.45890912     0.88900
C1002       C  0.79002113  0.37448880  0.04109154     0.95100
O1003       O  0.89831601  0.21953054  0.03132210    -0.68600
O1004       O  0.89831672  0.28044532  0.46868294    -0.69600
O1005       O  0.89831477  0.28044512  0.03132242    -0.58200
O1006       O  0.89831798  0.21953068  0.46868251    -0.66600
O1007       O  0.85062826  0.21949937  0.46865682    -0.66200
O1008       O  0.85062492  0.28047431  0.03134511    -0.57400
O1009       O  0.85062699  0.28047457  0.46865717    -0.69900
O1010       O  0.85062629  0.21949908  0.03134490    -0.68700
Cu1011     Cu  0.89998952  0.24998791  0.50000255     1.04600
Cu1012     Cu  0.84893248  0.24998678  0.50000092     1.02700
C1013       C  0.87448589  0.20996358  0.04109198     0.97600
C1014       C  0.87448679  0.29001139  0.45891181     0.96700
C1015       C  0.87448417  0.29001095  0.04109222     0.88900
C1016       C  0.87448838  0.20996371  0.45891125     0.95100
O1017       O  0.64831630  0.03044572  0.21867987    -0.68600
O1018       O  0.64831634  0.46952994  0.28131806    -0.69600
O1019       O  0.64831453  0.46953123  0.21867846    -0.58200
O1020       O  0.64831773  0.03044455  0.28131952    -0.66600
O1021       O  0.60062790  0.03047559  0.28134471    -0.66200
O1022       O  0.60062480  0.46950192  0.21865566    -0.57400
O1023       O  0.60062662  0.46950062  0.28134358    -0.69900
O1024       O  0.60062647  0.03047687  0.21865683    -0.68700
Cu1025     Cu  0.64998943  0.49998778  0.24999896     1.04600
Cu1026     Cu  0.59893241  0.49998881  0.25000030     1.04300
C1027       C  0.62448622  0.04001264  0.20891006     0.97600
C1028       C  0.62448632  0.45996377  0.29108900     0.96700
C1029       C  0.62448393  0.45996557  0.20890841     0.88900
C1030       C  0.62448797  0.04001116  0.29109065     0.95100
O1031       O  0.53048672  0.39934763  0.28134370    -0.68600
O1032       O  0.96950958  0.39934774  0.21865782    -0.69600
O1033       O  0.96951171  0.39934714  0.28134545    -0.58200
O1034       O  0.53048462  0.39934877  0.21865577    -0.66600
O1035       O  0.53045494  0.35165899  0.21867902    -0.66200
O1036       O  0.96954211  0.35165735  0.28132099    -0.57400
O1037       O  0.96954022  0.35165795  0.21868126    -0.69900
O1038       O  0.53045687  0.35165796  0.28131891    -0.68700
Cu1039     Cu  0.99999818  0.40104187  0.25000072     1.04600
Cu1040     Cu  0.49999855  0.34998485  0.25000003     1.04300
C1041       C  0.54002343  0.37548801  0.29108939     0.97600
C1042       C  0.95997325  0.37548806  0.20891150     0.96700
C1043       C  0.95997579  0.37548737  0.29109177     0.88900
C1044       C  0.54002077  0.37548944  0.20890867     0.95100
O1045       O  0.85168041  0.03044372  0.28132241    -0.68600
O1046       O  0.85168027  0.46952916  0.21868291    -0.69600
O1047       O  0.85168249  0.46952929  0.28132252    -0.58200
O1048       O  0.85167835  0.03044375  0.21868276    -0.66600
O1049       O  0.89936815  0.03047579  0.21865687    -0.66200
O1050       O  0.89937230  0.46950049  0.28134496    -0.57400
O1051       O  0.89937010  0.46950048  0.21865692    -0.69900
O1052       O  0.89937024  0.03047582  0.28134483    -0.68700
Cu1053     Cu  0.85000722  0.49998644  0.25000267     1.04600
Cu1054     Cu  0.90106428  0.49998821  0.25000083     1.04300
C1055       C  0.87551049  0.04001098  0.29109205     0.97600
C1056       C  0.87551030  0.45996343  0.20891166     0.96700
C1057       C  0.87551317  0.45996363  0.29109219     0.88900
C1058       C  0.87550781  0.04001116  0.20891152     0.95100
O1059       O  0.53048502  0.10062251  0.21865555    -0.68600
O1060       O  0.96951082  0.10062199  0.28134460    -0.69600
O1061       O  0.96950967  0.10062254  0.21865664    -0.58200
O1062       O  0.53048611  0.10062194  0.28134374    -0.66600
O1063       O  0.53045600  0.14831159  0.28131994    -0.66200
O1064       O  0.96954026  0.14831232  0.21868123    -0.57400
O1065       O  0.96954147  0.14831180  0.28132091    -0.69900
O1066       O  0.53045487  0.14831220  0.21868015    -0.68700
Cu1067     Cu  0.99999790  0.09892817  0.25000009     1.04600
Cu1068     Cu  0.49999816  0.14998516  0.25000056     1.04300
C1069       C  0.54002112  0.12448226  0.20890934     0.97600
C1070       C  0.95997506  0.12448166  0.29109132     0.96700
C1071       C  0.95997344  0.12448233  0.20891079     0.88900
C1072       C  0.54002242  0.12448151  0.29109025     0.95100
C1073       C  0.64681695  0.12543561  0.10357975     0.06600
C1074       C  0.62544796  0.14680788  0.10358005     0.06600
C1075       C  0.60376832  0.14621980  0.12499974    -0.13900
C1076       C  0.60317753  0.12454018  0.14641930     0.06600
C1077       C  0.62454683  0.10316831  0.14641931     0.06600
C1078       C  0.64622626  0.10375614  0.12499947    -0.13900
H1079       H  0.66268208  0.08729814  0.12499943     0.08600
H1080       H  0.58731258  0.16267788  0.12500001     0.08600
C1081       C  0.87454562  0.14680776  0.10358279     0.06600
C1082       C  0.85317612  0.12543596  0.10358259     0.06600
C1083       C  0.85376627  0.10375655  0.12500235    -0.13900
C1084       C  0.87544572  0.10316826  0.14642216     0.06600
C1085       C  0.89681533  0.12454001  0.14642238     0.06600
C1086       C  0.89622500  0.14621956  0.12500271    -0.13900
H1087       H  0.91268127  0.16267721  0.12500273     0.08600
H1088       H  0.83731039  0.08729858  0.12500193     0.08600
C1089       C  0.87454955  0.14680681  0.39642153     0.06600
C1090       C  0.85317993  0.12543498  0.39642172     0.06600
C1091       C  0.85377033  0.10375548  0.37500206    -0.13900
C1092       C  0.87544977  0.10316717  0.35358232     0.06600
C1093       C  0.89681935  0.12453897  0.35358213     0.06600
C1094       C  0.89622905  0.14621854  0.37500177    -0.13900
H1095       H  0.91268521  0.16267636  0.37500164     0.08600
H1096       H  0.83731400  0.08729724  0.37500222     0.08600
C1097       C  0.85317674  0.37454051  0.10358245     0.06600
C1098       C  0.87454443  0.35316694  0.10358295     0.06600
C1099       C  0.89622353  0.35375349  0.12500314    -0.13900
C1100       C  0.89681544  0.37543293  0.14642279     0.06600
C1101       C  0.87544765  0.39680636  0.14642233     0.06600
C1102       C  0.85376848  0.39621982  0.12500224    -0.13900
H1103       H  0.83731380  0.41267898  0.12500176     0.08600
H1104       H  0.91267865  0.33729405  0.12500347     0.08600
C1105       C  0.85318106  0.37454158  0.39642248     0.06600
C1106       C  0.87454898  0.35316824  0.39642229     0.06600
C1107       C  0.89622826  0.35375477  0.37500235    -0.13900
C1108       C  0.89682011  0.37543394  0.35358249     0.06600
C1109       C  0.87545236  0.39680747  0.35358273     0.06600
C1110       C  0.85377302  0.39622090  0.37500269    -0.13900
H1111       H  0.83731783  0.41268020  0.37500275     0.08600
H1112       H  0.91268337  0.33729531  0.37500214     0.08600
C1113       C  0.64681418  0.37454609  0.10357620     0.06600
C1114       C  0.62544686  0.35317200  0.10357667     0.06600
C1115       C  0.60376744  0.35375827  0.12499655    -0.13900
C1116       C  0.60317522  0.37543761  0.14641634     0.06600
C1117       C  0.62454283  0.39681139  0.14641604     0.06600
C1118       C  0.64622189  0.39622555  0.12499579    -0.13900
H1119       H  0.66267656  0.41268477  0.12499573     0.08600
H1120       H  0.58731252  0.33729849  0.12499677     0.08600
C1121       C  0.64682009  0.37454178  0.39641833     0.06600
C1122       C  0.62545276  0.35316758  0.39641785     0.06600
C1123       C  0.60377357  0.35375366  0.37499774    -0.13900
C1124       C  0.60318128  0.37543311  0.35357812     0.06600
C1125       C  0.62454891  0.39680692  0.35357843     0.06600
C1126       C  0.64622800  0.39622097  0.37499850    -0.13900
H1127       H  0.66268274  0.41268089  0.37499889     0.08600
H1128       H  0.58731861  0.33729398  0.37499759     0.08600
C1129       C  0.64681786  0.12543422  0.39642065     0.06600
C1130       C  0.62544900  0.14680658  0.39642028     0.06600
C1131       C  0.60376943  0.14621844  0.37500053    -0.13900
C1132       C  0.60317862  0.12453881  0.35358095     0.06600
C1133       C  0.62454787  0.10316682  0.35358131     0.06600
C1134       C  0.64622712  0.10375468  0.37500119    -0.13900
H1135       H  0.66268289  0.08729656  0.37500140     0.08600
H1136       H  0.58731342  0.16267688  0.37500022     0.08600
C1137       C  0.58058503  0.12462770  0.33176640    -0.08900
C1138       C  0.56194779  0.12454151  0.31331103    -0.10500
C1139       C  0.58058361  0.12462904  0.16823338    -0.08900
C1140       C  0.56194617  0.12454265  0.18668844    -0.10500
C1141       C  0.91940936  0.12462868  0.16823639    -0.08900
C1142       C  0.93804736  0.12454261  0.18669089    -0.10500
C1143       C  0.93805011  0.12454172  0.31331235    -0.08900
C1144       C  0.91941291  0.12462781  0.33176768    -0.10500
C1145       C  0.87545007  0.06193627  0.31331272    -0.08900
C1146       C  0.87536287  0.08057347  0.33176803    -0.10500
C1147       C  0.87544624  0.06193669  0.18669103    -0.08900
C1148       C  0.87535881  0.08057440  0.16823626    -0.10500
C1149       C  0.87544979  0.43803789  0.18669125    -0.08900
C1150       C  0.87536227  0.41940017  0.16823650    -0.10500
C1151       C  0.87545411  0.43803827  0.31331294    -0.08900
C1152       C  0.87536693  0.41940092  0.33176813    -0.10500
C1153       C  0.56194534  0.37543035  0.18668713    -0.08900
C1154       C  0.58058217  0.37534617  0.16823136    -0.10500
C1155       C  0.56194953  0.37542801  0.31330935    -0.08900
C1156       C  0.58058737  0.37534255  0.33176403    -0.10500
C1157       C  0.93805075  0.37542738  0.31331273    -0.08900
C1158       C  0.91941343  0.37534288  0.33176791    -0.10500
C1159       C  0.93804701  0.37542809  0.18669168    -0.08900
C1160       C  0.91940917  0.37534269  0.16823701    -0.10500
C1161       C  0.62463362  0.08057505  0.16823405    -0.08900
C1162       C  0.62454660  0.06193792  0.18668939    -0.10500
C1163       C  0.62454878  0.06193618  0.31331156    -0.08900
C1164       C  0.62463512  0.08057347  0.33176673    -0.10500
C1165       C  0.62454670  0.43803801  0.31330925    -0.08900
C1166       C  0.62463418  0.41940040  0.33176407    -0.10500
C1167       C  0.62454280  0.43804098  0.18668704    -0.08900
C1168       C  0.62462900  0.41940421  0.16823129    -0.10500
C1169       C  0.87454597  0.18803839  0.06331285    -0.08900
C1170       C  0.87463274  0.16940119  0.08176817    -0.10500
C1171       C  0.87463012  0.33057360  0.08176820    -0.08900
C1172       C  0.87454334  0.31193621  0.06331304    -0.10500
C1173       C  0.87454721  0.31193711  0.43669152    -0.08900
C1174       C  0.87463449  0.33057478  0.41823675    -0.10500
C1175       C  0.87463659  0.16940059  0.41823577    -0.08900
C1176       C  0.87454947  0.18803827  0.43669060    -0.10500
C1177       C  0.81194619  0.37454784  0.06331246    -0.08900
C1178       C  0.83058350  0.37463174  0.08176767    -0.10500
C1179       C  0.66940828  0.37463700  0.08176242    -0.08900
C1180       C  0.68804659  0.37455200  0.06330831    -0.10500
C1181       C  0.66941322  0.37463356  0.41823315    -0.08900
C1182       C  0.68805052  0.37454977  0.43668834    -0.10500
C1183       C  0.83058725  0.37463198  0.41823667    -0.08900
C1184       C  0.81194940  0.37454725  0.43669132    -0.10500
C1185       C  0.62536271  0.33057768  0.08176305    -0.08900
C1186       C  0.62545155  0.31193939  0.06330884    -0.10500
C1187       C  0.62536187  0.16940190  0.08176604    -0.08900
C1188       C  0.62544978  0.18803960  0.06331122    -0.10500
C1189       C  0.62545184  0.18803828  0.43668925    -0.08900
C1190       C  0.62536337  0.16940068  0.41823427    -0.10500
C1191       C  0.62536769  0.33057396  0.41823238    -0.08900
C1192       C  0.62545523  0.31193660  0.43668759    -0.10500
C1193       C  0.68804801  0.12543123  0.06331029    -0.08900
C1194       C  0.66941046  0.12534598  0.08176522    -0.10500
C1195       C  0.83058285  0.12534659  0.08176787    -0.08900
C1196       C  0.81194589  0.12543211  0.06331234    -0.10500
C1197       C  0.83058612  0.12534606  0.41823593    -0.08900
C1198       C  0.81194830  0.12543155  0.43669062    -0.10500
C1199       C  0.68804924  0.12543034  0.43668949    -0.08900
C1200       C  0.66941155  0.12534478  0.41823479    -0.10500
O1201       O  0.71951076  0.14935014  0.96865607    -0.68600
O1202       O  0.78048497  0.14935118  0.53134458    -0.69600
O1203       O  0.78048590  0.14935090  0.96865674    -0.58200
O1204       O  0.71950993  0.14935062  0.53134366    -0.66600
O1205       O  0.71954034  0.10166090  0.53131998    -0.66200
O1206       O  0.78045597  0.10166110  0.96868102    -0.57400
O1207       O  0.78045497  0.10166139  0.53132084    -0.69900
O1208       O  0.71954118  0.10166043  0.96868034    -0.68700
Cu1209     Cu  0.74999787  0.15104479  0.50000025     1.04600
Cu1210     Cu  0.74999811  0.09998775  0.00000052     1.04300
C1211       C  0.70997473  0.12549042  0.95890983     0.97600
C1212       C  0.79002101  0.12549168  0.54109131     0.96700
C1213       C  0.79002242  0.12549132  0.95891068     0.88900
C1214       C  0.70997369  0.12549103  0.54109003     0.95100
O1215       O  0.60168246  0.28044656  0.53131821    -0.68600
O1216       O  0.60168269  0.21953102  0.96867982    -0.69600
O1217       O  0.60168133  0.21953190  0.53131943    -0.58200
O1218       O  0.60168421  0.28044547  0.96867864    -0.66600
O1219       O  0.64937400  0.28047509  0.96865551    -0.66200
O1220       O  0.64937113  0.21950066  0.53134469    -0.57400
O1221       O  0.64937248  0.21949957  0.96865643    -0.69900
O1222       O  0.64937225  0.28047629  0.53134378    -0.68700
Cu1223     Cu  0.60000954  0.24998873  0.49999899     1.04600
Cu1224     Cu  0.65106660  0.24998784  0.50000017     1.04300
C1225       C  0.62551238  0.29001305  0.54108910     0.97600
C1226       C  0.62551263  0.20996384  0.95890983     0.96700
C1227       C  0.62551098  0.20996503  0.54109054     0.88900
C1228       C  0.62551468  0.29001149  0.95890857     0.95100
O1229       O  0.78048611  0.35062886  0.96865766    -0.68600
O1230       O  0.71950916  0.35063143  0.53134336    -0.69600
O1231       O  0.71951113  0.35063051  0.96865604    -0.58200
O1232       O  0.78048418  0.35062947  0.53134528    -0.66600
O1233       O  0.78045569  0.39831917  0.53132086    -0.66200
O1234       O  0.71954247  0.39832022  0.96867925    -0.57400
O1235       O  0.71954070  0.39832124  0.53131886    -0.69900
O1236       O  0.78045735  0.39831866  0.96868106    -0.68700
Cu1237     Cu  0.74999759  0.34893607  0.50000060     1.04600
Cu1238     Cu  0.74999915  0.39999312  0.50000000     1.04300
C1239       C  0.79002328  0.37448813  0.95891122     0.97600
C1240       C  0.70997318  0.37449141  0.54108898     0.96700
C1241       C  0.70997561  0.37449010  0.95890918     0.88900
C1242       C  0.79002113  0.37448880  0.54109154     0.95100
O1243       O  0.89831599  0.21953045  0.53132217    -0.68600
O1244       O  0.89831669  0.28044541  0.96868286    -0.69600
O1245       O  0.89831472  0.28044500  0.53132251    -0.58200
O1246       O  0.89831793  0.21953076  0.96868239    -0.66600
O1247       O  0.85062822  0.21949926  0.96865687    -0.66200
O1248       O  0.85062489  0.28047436  0.53134511    -0.57400
O1249       O  0.85062695  0.28047454  0.96865716    -0.69900
O1250       O  0.85062626  0.21949907  0.53134484    -0.68700
Cu1251     Cu  0.89998955  0.24998798  0.00000250     1.04600
Cu1252     Cu  0.84893252  0.24998674  0.00000095     1.02700
C1253       C  0.87448583  0.20996355  0.54109199     0.97600
C1254       C  0.87448672  0.29001137  0.95891173     0.96700
C1255       C  0.87448414  0.29001094  0.54109227     0.88900
C1256       C  0.87448833  0.20996373  0.95891120     0.95100
O1257       O  0.64831630  0.03044571  0.71867981    -0.68600
O1258       O  0.64831633  0.46952991  0.78131810    -0.69600
O1259       O  0.64831455  0.46953123  0.71867842    -0.58200
O1260       O  0.64831774  0.03044458  0.78131946    -0.66600
O1261       O  0.60062791  0.03047562  0.78134470    -0.66200
O1262       O  0.60062479  0.46950198  0.71865567    -0.57400
O1263       O  0.60062659  0.46950062  0.78134357    -0.69900
O1264       O  0.60062649  0.03047689  0.71865683    -0.68700
Cu1265     Cu  0.64998949  0.49998779  0.74999896     1.04600
Cu1266     Cu  0.59893241  0.49998881  0.75000027     1.04300
C1267       C  0.62448622  0.04001264  0.70891003     0.97600
C1268       C  0.62448629  0.45996379  0.79108900     0.96700
C1269       C  0.62448393  0.45996556  0.70890844     0.88900
C1270       C  0.62448798  0.04001116  0.79109064     0.95100
O1271       O  0.53048674  0.39934766  0.78134365    -0.68600
O1272       O  0.96950952  0.39934777  0.71865783    -0.69600
O1273       O  0.96951173  0.39934707  0.78134548    -0.58200
O1274       O  0.53048456  0.39934880  0.71865573    -0.66600
O1275       O  0.53045495  0.35165903  0.71867902    -0.66200
O1276       O  0.96954211  0.35165736  0.78132091    -0.57400
O1277       O  0.96954023  0.35165797  0.71868124    -0.69900
O1278       O  0.53045686  0.35165800  0.78131890    -0.68700
Cu1279     Cu  0.99999817  0.40104188  0.75000070     1.04600
Cu1280     Cu  0.49999856  0.34998486  0.74999999     1.04300
C1281       C  0.54002343  0.37548804  0.79108937     0.97600
C1282       C  0.95997321  0.37548809  0.70891154     0.96700
C1283       C  0.95997582  0.37548733  0.79109177     0.88900
C1284       C  0.54002078  0.37548948  0.70890867     0.95100
O1285       O  0.85168047  0.03044372  0.78132235    -0.68600
O1286       O  0.85168036  0.46952918  0.71868290    -0.69600
O1287       O  0.85168249  0.46952928  0.78132246    -0.58200
O1288       O  0.85167832  0.03044377  0.71868271    -0.66600
O1289       O  0.89936813  0.03047579  0.71865682    -0.66200
O1290       O  0.89937231  0.46950049  0.78134494    -0.57400
O1291       O  0.89937010  0.46950046  0.71865689    -0.69900
O1292       O  0.89937019  0.03047586  0.78134484    -0.68700
Cu1293     Cu  0.85000726  0.49998645  0.75000264     1.04600
Cu1294     Cu  0.90106433  0.49998822  0.75000081     1.04300
C1295       C  0.87551050  0.04001102  0.79109202     0.97600
C1296       C  0.87551034  0.45996349  0.70891157     0.96700
C1297       C  0.87551316  0.45996360  0.79109212     0.88900
C1298       C  0.87550779  0.04001107  0.70891141     0.95100
O1299       O  0.53048499  0.10062253  0.71865556    -0.68600
O1300       O  0.96951082  0.10062203  0.78134455    -0.69600
O1301       O  0.96950970  0.10062257  0.71865664    -0.58200
O1302       O  0.53048609  0.10062197  0.78134370    -0.66600
O1303       O  0.53045601  0.14831162  0.78131990    -0.66200
O1304       O  0.96954025  0.14831236  0.71868122    -0.57400
O1305       O  0.96954147  0.14831183  0.78132088    -0.69900
O1306       O  0.53045487  0.14831225  0.71868011    -0.68700
Cu1307     Cu  0.99999790  0.09892819  0.75000006     1.04600
Cu1308     Cu  0.49999817  0.14998519  0.75000056     1.04300
C1309       C  0.54002107  0.12448228  0.70890930     0.97600
C1310       C  0.95997507  0.12448168  0.79109131     0.96700
C1311       C  0.95997340  0.12448236  0.70891081     0.88900
C1312       C  0.54002241  0.12448153  0.79109022     0.95100
C1313       C  0.64681704  0.12543552  0.60357977     0.06600
C1314       C  0.62544800  0.14680787  0.60358007     0.06600
C1315       C  0.60376844  0.14621976  0.62499976    -0.13900
C1316       C  0.60317756  0.12454021  0.64641927     0.06600
C1317       C  0.62454697  0.10316832  0.64641934     0.06600
C1318       C  0.64622627  0.10375625  0.62499951    -0.13900
H1319       H  0.66268285  0.08729761  0.62499954     0.08600
H1320       H  0.58731211  0.16267802  0.62499987     0.08600
C1321       C  0.87454564  0.14680774  0.60358277     0.06600
C1322       C  0.85317606  0.12543600  0.60358266     0.06600
C1323       C  0.85376630  0.10375658  0.62500238    -0.13900
C1324       C  0.87544574  0.10316831  0.64642220     0.06600
C1325       C  0.89681535  0.12454005  0.64642237     0.06600
C1326       C  0.89622503  0.14621959  0.62500271    -0.13900
H1327       H  0.91268131  0.16267727  0.62500277     0.08600
H1328       H  0.83731021  0.08729872  0.62500223     0.08600
C1329       C  0.87454954  0.14680689  0.89642149     0.06600
C1330       C  0.85317995  0.12543510  0.89642169     0.06600
C1331       C  0.85377030  0.10375552  0.87500206    -0.13900
C1332       C  0.87544981  0.10316717  0.85358230     0.06600
C1333       C  0.89681931  0.12453896  0.85358208     0.06600
C1334       C  0.89622904  0.14621855  0.87500168    -0.13900
H1335       H  0.91268517  0.16267638  0.87500134     0.08600
H1336       H  0.83731420  0.08729769  0.87500226     0.08600
C1337       C  0.85317665  0.37454050  0.60358246     0.06600
C1338       C  0.87454435  0.35316696  0.60358295     0.06600
C1339       C  0.89622345  0.35375346  0.62500313    -0.13900
C1340       C  0.89681540  0.37543292  0.64642279     0.06600
C1341       C  0.87544762  0.39680638  0.64642235     0.06600
C1342       C  0.85376842  0.39621982  0.62500228    -0.13900
H1343       H  0.83731387  0.41267913  0.62500179     0.08600
H1344       H  0.91267874  0.33729419  0.62500322     0.08600
C1345       C  0.85318110  0.37454153  0.89642244     0.06600
C1346       C  0.87454910  0.35316821  0.89642230     0.06600
C1347       C  0.89622825  0.35375481  0.87500233    -0.13900
C1348       C  0.89682015  0.37543393  0.85358249     0.06600
C1349       C  0.87545234  0.39680746  0.85358273     0.06600
C1350       C  0.85377306  0.39622086  0.87500272    -0.13900
H1351       H  0.83731777  0.41268010  0.87500284     0.08600
H1352       H  0.91268389  0.33729510  0.87500223     0.08600
C1353       C  0.64681421  0.37454616  0.60357619     0.06600
C1354       C  0.62544695  0.35317202  0.60357670     0.06600
C1355       C  0.60376745  0.35375828  0.62499658    -0.13900
C1356       C  0.60317533  0.37543771  0.64641637     0.06600
C1357       C  0.62454293  0.39681149  0.64641607     0.06600
C1358       C  0.64622187  0.39622557  0.62499579    -0.13900
H1359       H  0.66267707  0.41268501  0.62499590     0.08600
H1360       H  0.58731320  0.33729857  0.62499721     0.08600
C1361       C  0.64682013  0.37454174  0.89641832     0.06600
C1362       C  0.62545281  0.35316758  0.89641783     0.06600
C1363       C  0.60377359  0.35375369  0.87499776    -0.13900
C1364       C  0.60318126  0.37543312  0.85357811     0.06600
C1365       C  0.62454890  0.39680693  0.85357843     0.06600
C1366       C  0.64622804  0.39622085  0.87499846    -0.13900
H1367       H  0.66268287  0.41268082  0.87499884     0.08600
H1368       H  0.58731855  0.33729405  0.87499767     0.08600
C1369       C  0.64681793  0.12543424  0.89642062     0.06600
C1370       C  0.62544904  0.14680658  0.89642027     0.06600
C1371       C  0.60376946  0.14621844  0.87500052    -0.13900
C1372       C  0.60317862  0.12453878  0.85358095     0.06600
C1373       C  0.62454793  0.10316681  0.85358123     0.06600
C1374       C  0.64622707  0.10375474  0.87500116    -0.13900
H1375       H  0.66268341  0.08729644  0.87500121     0.08600
H1376       H  0.58731347  0.16267693  0.87500019     0.08600
C1377       C  0.58058504  0.12462771  0.83176638    -0.08900
C1378       C  0.56194780  0.12454154  0.81331100    -0.10500
C1379       C  0.58058369  0.12462906  0.66823341    -0.08900
C1380       C  0.56194620  0.12454271  0.68668844    -0.10500
C1381       C  0.91940936  0.12462873  0.66823635    -0.08900
C1382       C  0.93804733  0.12454268  0.68669087    -0.10500
C1383       C  0.93805007  0.12454174  0.81331234    -0.08900
C1384       C  0.91941289  0.12462779  0.83176768    -0.10500
C1385       C  0.87545019  0.06193614  0.81331281    -0.08900
C1386       C  0.87536292  0.08057347  0.83176796    -0.10500
C1387       C  0.87544622  0.06193663  0.68669103    -0.08900
C1388       C  0.87535884  0.08057440  0.66823633    -0.10500
C1389       C  0.87544987  0.43803791  0.68669127    -0.08900
C1390       C  0.87536227  0.41940019  0.66823654    -0.10500
C1391       C  0.87545408  0.43803828  0.81331288    -0.08900
C1392       C  0.87536686  0.41940089  0.83176805    -0.10500
C1393       C  0.56194535  0.37543039  0.68668706    -0.08900
C1394       C  0.58058226  0.37534624  0.66823137    -0.10500
C1395       C  0.56194947  0.37542806  0.81330937    -0.08900
C1396       C  0.58058738  0.37534265  0.83176398    -0.10500
C1397       C  0.93805075  0.37542739  0.81331266    -0.08900
C1398       C  0.91941343  0.37534293  0.83176783    -0.10500
C1399       C  0.93804702  0.37542816  0.68669170    -0.08900
C1400       C  0.91940915  0.37534273  0.66823705    -0.10500
C1401       C  0.62463367  0.08057506  0.66823405    -0.08900
C1402       C  0.62454657  0.06193791  0.68668937    -0.10500
C1403       C  0.62454872  0.06193618  0.81331151    -0.08900
C1404       C  0.62463511  0.08057343  0.83176671    -0.10500
C1405       C  0.62454671  0.43803813  0.81330923    -0.08900
C1406       C  0.62463424  0.41940047  0.83176401    -0.10500
C1407       C  0.62454282  0.43804098  0.68668708    -0.08900
C1408       C  0.62462906  0.41940431  0.66823125    -0.10500
C1409       C  0.87454588  0.18803838  0.56331284    -0.08900
C1410       C  0.87463272  0.16940118  0.58176816    -0.10500
C1411       C  0.87463007  0.33057365  0.58176824    -0.08900
C1412       C  0.87454328  0.31193630  0.56331304    -0.10500
C1413       C  0.87454712  0.31193708  0.93669149    -0.08900
C1414       C  0.87463454  0.33057474  0.91823672    -0.10500
C1415       C  0.87463657  0.16940065  0.91823575    -0.08900
C1416       C  0.87454943  0.18803827  0.93669063    -0.10500
C1417       C  0.81194613  0.37454786  0.56331249    -0.08900
C1418       C  0.83058342  0.37463166  0.58176769    -0.10500
C1419       C  0.66940826  0.37463703  0.58176236    -0.08900
C1420       C  0.68804657  0.37455195  0.56330824    -0.10500
C1421       C  0.66941319  0.37463352  0.91823319    -0.08900
C1422       C  0.68805050  0.37454972  0.93668835    -0.10500
C1423       C  0.83058728  0.37463205  0.91823661    -0.08900
C1424       C  0.81194942  0.37454721  0.93669129    -0.10500
C1425       C  0.62536274  0.33057765  0.58176306    -0.08900
C1426       C  0.62545156  0.31193932  0.56330891    -0.10500
C1427       C  0.62536190  0.16940184  0.58176601    -0.08900
C1428       C  0.62544976  0.18803958  0.56331121    -0.10500
C1429       C  0.62545179  0.18803829  0.93668920    -0.08900
C1430       C  0.62536341  0.16940065  0.91823426    -0.10500
C1431       C  0.62536765  0.33057397  0.91823235    -0.08900
C1432       C  0.62545521  0.31193661  0.93668756    -0.10500
C1433       C  0.68804802  0.12543127  0.56331030    -0.08900
C1434       C  0.66941053  0.12534597  0.58176530    -0.10500
C1435       C  0.83058289  0.12534651  0.58176787    -0.08900
C1436       C  0.81194588  0.12543210  0.56331240    -0.10500
C1437       C  0.83058617  0.12534603  0.91823593    -0.08900
C1438       C  0.81194830  0.12543162  0.93669056    -0.10500
C1439       C  0.68804923  0.12543037  0.93668953    -0.08900
C1440       C  0.66941157  0.12534485  0.91823481    -0.10500
O1441       O  0.71951071  0.64935029  0.46865602    -0.68600
O1442       O  0.78048487  0.64935116  0.03134459    -0.69600
O1443       O  0.78048581  0.64935094  0.46865672    -0.58200
O1444       O  0.71950985  0.64935067  0.03134368    -0.66600
O1445       O  0.71954031  0.60166086  0.03131992    -0.66200
O1446       O  0.78045603  0.60166122  0.46868102    -0.57400
O1447       O  0.78045497  0.60166145  0.03132075    -0.69900
O1448       O  0.71954122  0.60166044  0.46868021    -0.68700
Cu1449     Cu  0.74999782  0.65104479  0.00000023     1.04600
Cu1450     Cu  0.74999816  0.59998775  0.50000048     1.04300
C1451       C  0.70997463  0.62549047  0.45890989     0.97600
C1452       C  0.79002101  0.62549170  0.04109126     0.96700
C1453       C  0.79002242  0.62549139  0.45891068     0.88900
C1454       C  0.70997370  0.62549101  0.04109005     0.95100
O1455       O  0.60168251  0.78044656  0.03131818    -0.68600
O1456       O  0.60168256  0.71953094  0.46867984    -0.69600
O1457       O  0.60168127  0.71953188  0.03131944    -0.58200
O1458       O  0.60168424  0.78044546  0.46867867    -0.66600
O1459       O  0.64937395  0.78047506  0.46865554    -0.66200
O1460       O  0.64937106  0.71950079  0.03134476    -0.57400
O1461       O  0.64937236  0.71949955  0.46865641    -0.69900
O1462       O  0.64937221  0.78047636  0.03134370    -0.68700
Cu1463     Cu  0.60000956  0.74998875  0.99999899     1.04600
Cu1464     Cu  0.65106654  0.74998792  0.00000017     1.04300
C1465       C  0.62551237  0.79001305  0.04108908     0.97600
C1466       C  0.62551252  0.70996391  0.45890973     0.96700
C1467       C  0.62551093  0.70996511  0.04109059     0.88900
C1468       C  0.62551467  0.79001143  0.45890857     0.95100
O1469       O  0.78048605  0.85062893  0.46865756    -0.68600
O1470       O  0.71950910  0.85063149  0.03134346    -0.69600
O1471       O  0.71951102  0.85063048  0.46865601    -0.58200
O1472       O  0.78048412  0.85062943  0.03134527    -0.66600
O1473       O  0.78045571  0.89831926  0.03132085    -0.66200
O1474       O  0.71954252  0.89832032  0.46867921    -0.57400
O1475       O  0.71954078  0.89832122  0.03131888    -0.69900
O1476       O  0.78045739  0.89831864  0.46868105    -0.68700
Cu1477     Cu  0.74999754  0.84893606  0.00000063     1.04600
Cu1478     Cu  0.74999916  0.89999315  0.00000001     1.04300
C1479       C  0.79002335  0.87448815  0.45891125     0.97600
C1480       C  0.70997317  0.87449146  0.04108905     0.96700
C1481       C  0.70997566  0.87449014  0.45890909     0.88900
C1482       C  0.79002100  0.87448881  0.04109160     0.95100
O1483       O  0.89831602  0.71953054  0.03132219    -0.68600
O1484       O  0.89831669  0.78044544  0.46868288    -0.69600
O1485       O  0.89831477  0.78044515  0.03132241    -0.58200
O1486       O  0.89831792  0.71953075  0.46868246    -0.66600
O1487       O  0.85062814  0.71949936  0.46865680    -0.66200
O1488       O  0.85062497  0.78047429  0.03134517    -0.57400
O1489       O  0.85062688  0.78047454  0.46865716    -0.69900
O1490       O  0.85062624  0.71949907  0.03134491    -0.68700
Cu1491     Cu  0.89998953  0.74998796  0.50000251     1.04600
Cu1492     Cu  0.84893248  0.74998676  0.50000094     1.02700
C1493       C  0.87448585  0.70996359  0.04109201     0.97600
C1494       C  0.87448670  0.79001142  0.45891182     0.96700
C1495       C  0.87448420  0.79001106  0.04109214     0.88900
C1496       C  0.87448831  0.70996369  0.45891128     0.95100
O1497       O  0.64831638  0.53044565  0.21867988    -0.68600
O1498       O  0.64831638  0.96953001  0.28131807    -0.69600
O1499       O  0.64831454  0.96953125  0.21867844    -0.58200
O1500       O  0.64831767  0.53044443  0.28131955    -0.66600
O1501       O  0.60062794  0.53047557  0.28134471    -0.66200
O1502       O  0.60062469  0.96950187  0.21865577    -0.57400
O1503       O  0.60062653  0.96950059  0.28134360    -0.69900
O1504       O  0.60062658  0.53047695  0.21865688    -0.68700
Cu1505     Cu  0.64998946  0.99998783  0.24999895     1.04600
Cu1506     Cu  0.59893233  0.99998878  0.25000032     1.04300
C1507       C  0.62448632  0.54001266  0.20891008     0.97600
C1508       C  0.62448631  0.95996387  0.29108904     0.96700
C1509       C  0.62448389  0.95996560  0.20890842     0.88900
C1510       C  0.62448796  0.54001110  0.29109068     0.95100
O1511       O  0.53048682  0.89934772  0.28134365    -0.68600
O1512       O  0.96950951  0.89934773  0.21865778    -0.69600
O1513       O  0.96951160  0.89934713  0.28134548    -0.58200
O1514       O  0.53048465  0.89934877  0.21865573    -0.66600
O1515       O  0.53045503  0.85165895  0.21867905    -0.66200
O1516       O  0.96954203  0.85165730  0.28132102    -0.57400
O1517       O  0.96954016  0.85165802  0.21868131    -0.69900
O1518       O  0.53045691  0.85165792  0.28131895    -0.68700
Cu1519     Cu  0.99999813  0.90104187  0.25000072     1.04600
Cu1520     Cu  0.49999858  0.84998482  0.25000001     1.04300
C1521       C  0.54002345  0.87548803  0.29108940     0.97600
C1522       C  0.95997315  0.87548809  0.20891152     0.96700
C1523       C  0.95997573  0.87548733  0.29109178     0.88900
C1524       C  0.54002074  0.87548942  0.20890862     0.95100
O1525       O  0.85168040  0.53044375  0.28132234    -0.68600
O1526       O  0.85168036  0.96952915  0.21868295    -0.69600
O1527       O  0.85168257  0.96952924  0.28132255    -0.58200
O1528       O  0.85167830  0.53044379  0.21868279    -0.66600
O1529       O  0.89936800  0.53047573  0.21865685    -0.66200
O1530       O  0.89937225  0.96950056  0.28134499    -0.57400
O1531       O  0.89937019  0.96950057  0.21865688    -0.69900
O1532       O  0.89937021  0.53047579  0.28134488    -0.68700
Cu1533     Cu  0.85000726  0.99998641  0.25000270     1.04600
Cu1534     Cu  0.90106430  0.99998826  0.25000082     1.04300
C1535       C  0.87551048  0.54001108  0.29109197     0.97600
C1536       C  0.87551041  0.95996351  0.20891162     0.96700
C1537       C  0.87551320  0.95996354  0.29109215     0.88900
C1538       C  0.87550773  0.54001109  0.20891144     0.95100
O1539       O  0.53048497  0.60062253  0.21865554    -0.68600
O1540       O  0.96951085  0.60062208  0.28134465    -0.69600
O1541       O  0.96950972  0.60062251  0.21865665    -0.58200
O1542       O  0.53048598  0.60062193  0.28134371    -0.66600
O1543       O  0.53045605  0.64831171  0.28131997    -0.66200
O1544       O  0.96954019  0.64831229  0.21868123    -0.57400
O1545       O  0.96954143  0.64831180  0.28132089    -0.69900
O1546       O  0.53045488  0.64831234  0.21868021    -0.68700
Cu1547     Cu  0.99999792  0.59892817  0.25000011     1.04600
Cu1548     Cu  0.49999817  0.64998521  0.25000058     1.04300
C1549       C  0.54002109  0.62448233  0.20890934     0.97600
C1550       C  0.95997503  0.62448169  0.29109134     0.96700
C1551       C  0.95997337  0.62448227  0.20891084     0.88900
C1552       C  0.54002232  0.62448153  0.29109029     0.95100
C1553       C  0.64681697  0.62543563  0.10357979     0.06600
C1554       C  0.62544800  0.64680794  0.10358003     0.06600
C1555       C  0.60376841  0.64621990  0.12499969    -0.13900
C1556       C  0.60317752  0.62454037  0.14641929     0.06600
C1557       C  0.62454675  0.60316839  0.14641930     0.06600
C1558       C  0.64622618  0.60375622  0.12499954    -0.13900
H1559       H  0.66268197  0.58729810  0.12499949     0.08600
H1560       H  0.58731245  0.66267849  0.12499999     0.08600
C1561       C  0.87454569  0.64680789  0.10358279     0.06600
C1562       C  0.85317612  0.62543598  0.10358262     0.06600
C1563       C  0.85376626  0.60375665  0.12500240    -0.13900
C1564       C  0.87544561  0.60316833  0.14642219     0.06600
C1565       C  0.89681536  0.62454013  0.14642230     0.06600
C1566       C  0.89622497  0.64621958  0.12500264    -0.13900
H1567       H  0.91268193  0.66267792  0.12500268     0.08600
H1568       H  0.83730975  0.58729842  0.12500220     0.08600
C1569       C  0.87454972  0.64680692  0.39642152     0.06600
C1570       C  0.85318001  0.62543513  0.39642165     0.06600
C1571       C  0.85377036  0.60375552  0.37500207    -0.13900
C1572       C  0.87544981  0.60316731  0.35358228     0.06600
C1573       C  0.89681947  0.62453910  0.35358214     0.06600
C1574       C  0.89622905  0.64621862  0.37500170    -0.13900
H1575       H  0.91268595  0.66267713  0.37500162     0.08600
H1576       H  0.83731422  0.58729766  0.37500224     0.08600
C1577       C  0.85317661  0.87454057  0.10358247     0.06600
C1578       C  0.87454437  0.85316707  0.10358289     0.06600
C1579       C  0.89622345  0.85375351  0.12500314    -0.13900
C1580       C  0.89681537  0.87543302  0.14642280     0.06600
C1581       C  0.87544752  0.89680637  0.14642242     0.06600
C1582       C  0.85376843  0.89621985  0.12500228    -0.13900
H1583       H  0.83731338  0.91267918  0.12500191     0.08600
H1584       H  0.91267841  0.83729465  0.12500326     0.08600
C1585       C  0.85318109  0.87454157  0.39642256     0.06600
C1586       C  0.87454897  0.85316826  0.39642237     0.06600
C1587       C  0.89622829  0.85375472  0.37500236    -0.13900
C1588       C  0.89682013  0.87543396  0.35358245     0.06600
C1589       C  0.87545236  0.89680742  0.35358270     0.06600
C1590       C  0.85377299  0.89622093  0.37500275    -0.13900
H1591       H  0.83731804  0.91267981  0.37500285     0.08600
H1592       H  0.91268316  0.83729578  0.37500235     0.08600
C1593       C  0.64681420  0.87454611  0.10357619     0.06600
C1594       C  0.62544687  0.85317205  0.10357663     0.06600
C1595       C  0.60376746  0.85375828  0.12499660    -0.13900
C1596       C  0.60317521  0.87543760  0.14641640     0.06600
C1597       C  0.62454281  0.89681139  0.14641605     0.06600
C1598       C  0.64622191  0.89622553  0.12499582    -0.13900
H1599       H  0.66267662  0.91268480  0.12499582     0.08600
H1600       H  0.58731258  0.83729857  0.12499691     0.08600
C1601       C  0.64682005  0.87454172  0.39641836     0.06600
C1602       C  0.62545277  0.85316755  0.39641787     0.06600
C1603       C  0.60377355  0.85375364  0.37499773    -0.13900
C1604       C  0.60318124  0.87543307  0.35357807     0.06600
C1605       C  0.62454886  0.89680684  0.35357841     0.06600
C1606       C  0.64622798  0.89622092  0.37499853    -0.13900
H1607       H  0.66268255  0.91268032  0.37499877     0.08600
H1608       H  0.58731865  0.83729391  0.37499742     0.08600
C1609       C  0.64681789  0.62543412  0.39642070     0.06600
C1610       C  0.62544899  0.64680650  0.39642032     0.06600
C1611       C  0.60376942  0.64621834  0.37500057    -0.13900
C1612       C  0.60317856  0.62453873  0.35358098     0.06600
C1613       C  0.62454785  0.60316676  0.35358128     0.06600
C1614       C  0.64622704  0.60375466  0.37500116    -0.13900
H1615       H  0.66268307  0.58729611  0.37500133     0.08600
H1616       H  0.58731335  0.66267679  0.37500029     0.08600
C1617       C  0.58058502  0.62462762  0.33176642    -0.08900
C1618       C  0.56194777  0.62454152  0.31331105    -0.10500
C1619       C  0.58058363  0.62462911  0.16823329    -0.08900
C1620       C  0.56194621  0.62454267  0.18668838    -0.10500
C1621       C  0.91940937  0.62462871  0.16823629    -0.08900
C1622       C  0.93804735  0.62454252  0.18669082    -0.10500
C1623       C  0.93805014  0.62454165  0.31331240    -0.08900
C1624       C  0.91941293  0.62462793  0.33176768    -0.10500
C1625       C  0.87545017  0.56193633  0.31331276    -0.08900
C1626       C  0.87536290  0.58057366  0.33176793    -0.10500
C1627       C  0.87544623  0.56193676  0.18669108    -0.08900
C1628       C  0.87535880  0.58057445  0.16823629    -0.10500
C1629       C  0.87544993  0.93803791  0.18669127    -0.08900
C1630       C  0.87536223  0.91940022  0.16823651    -0.10500
C1631       C  0.87545414  0.93803826  0.31331295    -0.08900
C1632       C  0.87536692  0.91940092  0.33176813    -0.10500
C1633       C  0.56194531  0.87543036  0.18668717    -0.08900
C1634       C  0.58058215  0.87534609  0.16823144    -0.10500
C1635       C  0.56194955  0.87542797  0.31330931    -0.08900
C1636       C  0.58058740  0.87534248  0.33176394    -0.10500
C1637       C  0.93805078  0.87542731  0.31331267    -0.08900
C1638       C  0.91941344  0.87534280  0.33176779    -0.10500
C1639       C  0.93804701  0.87542814  0.18669164    -0.08900
C1640       C  0.91940905  0.87534268  0.16823710    -0.10500
C1641       C  0.62463365  0.58057511  0.16823403    -0.08900
C1642       C  0.62454660  0.56193802  0.18668944    -0.10500
C1643       C  0.62454875  0.56193611  0.31331158    -0.08900
C1644       C  0.62463519  0.58057341  0.33176673    -0.10500
C1645       C  0.62454668  0.93803805  0.31330920    -0.08900
C1646       C  0.62463427  0.91940044  0.33176406    -0.10500
C1647       C  0.62454280  0.93804101  0.18668700    -0.08900
C1648       C  0.62462903  0.91940421  0.16823128    -0.10500
C1649       C  0.87454594  0.68803844  0.06331285    -0.08900
C1650       C  0.87463283  0.66940127  0.08176816    -0.10500
C1651       C  0.87463026  0.83057364  0.08176821    -0.08900
C1652       C  0.87454336  0.81193627  0.06331303    -0.10500
C1653       C  0.87454717  0.81193707  0.43669157    -0.08900
C1654       C  0.87463457  0.83057472  0.41823679    -0.10500
C1655       C  0.87463651  0.66940066  0.41823572    -0.08900
C1656       C  0.87454951  0.68803828  0.43669061    -0.10500
C1657       C  0.81194615  0.87454782  0.06331241    -0.08900
C1658       C  0.83058343  0.87463176  0.08176765    -0.10500
C1659       C  0.66940823  0.87463697  0.08176239    -0.08900
C1660       C  0.68804659  0.87455198  0.06330835    -0.10500
C1661       C  0.66941319  0.87463357  0.41823315    -0.08900
C1662       C  0.68805049  0.87454968  0.43668833    -0.10500
C1663       C  0.83058725  0.87463198  0.41823669    -0.08900
C1664       C  0.81194944  0.87454719  0.43669137    -0.10500
C1665       C  0.62536272  0.83057765  0.08176301    -0.08900
C1666       C  0.62545145  0.81193937  0.06330880    -0.10500
C1667       C  0.62536200  0.66940197  0.08176604    -0.08900
C1668       C  0.62544975  0.68803966  0.06331122    -0.10500
C1669       C  0.62545174  0.68803828  0.43668923    -0.08900
C1670       C  0.62536328  0.66940070  0.41823422    -0.10500
C1671       C  0.62536767  0.83057400  0.41823250    -0.08900
C1672       C  0.62545513  0.81193658  0.43668765    -0.10500
C1673       C  0.68804804  0.62543116  0.06331033    -0.08900
C1674       C  0.66941047  0.62534591  0.08176526    -0.10500
C1675       C  0.83058288  0.62534666  0.08176792    -0.08900
C1676       C  0.81194587  0.62543209  0.06331242    -0.10500
C1677       C  0.83058623  0.62534609  0.41823595    -0.08900
C1678       C  0.81194834  0.62543160  0.43669059    -0.10500
C1679       C  0.68804923  0.62543025  0.43668953    -0.08900
C1680       C  0.66941153  0.62534477  0.41823488    -0.10500
O1681       O  0.71951068  0.64935029  0.96865607    -0.68600
O1682       O  0.78048489  0.64935120  0.53134458    -0.69600
O1683       O  0.78048581  0.64935092  0.96865675    -0.58200
O1684       O  0.71950987  0.64935060  0.53134364    -0.66600
O1685       O  0.71954033  0.60166086  0.53131988    -0.66200
O1686       O  0.78045605  0.60166111  0.96868103    -0.57400
O1687       O  0.78045498  0.60166149  0.53132075    -0.69900
O1688       O  0.71954119  0.60166046  0.96868025    -0.68700
Cu1689     Cu  0.74999784  0.65104479  0.50000021     1.04600
Cu1690     Cu  0.74999815  0.59998773  0.00000048     1.04300
C1691       C  0.70997467  0.62549049  0.95890987     0.97600
C1692       C  0.79002105  0.62549174  0.54109122     0.96700
C1693       C  0.79002244  0.62549134  0.95891070     0.88900
C1694       C  0.70997363  0.62549097  0.54108996     0.95100
O1695       O  0.60168250  0.78044657  0.53131821    -0.68600
O1696       O  0.60168265  0.71953096  0.96867984    -0.69600
O1697       O  0.60168136  0.71953188  0.53131945    -0.58200
O1698       O  0.60168420  0.78044545  0.96867864    -0.66600
O1699       O  0.64937391  0.78047516  0.96865555    -0.66200
O1700       O  0.64937105  0.71950070  0.53134471    -0.57400
O1701       O  0.64937234  0.71949964  0.96865644    -0.69900
O1702       O  0.64937218  0.78047630  0.53134371    -0.68700
Cu1703     Cu  0.60000954  0.74998875  0.49999900     1.04600
Cu1704     Cu  0.65106653  0.74998788  0.50000017     1.04300
C1705       C  0.62551237  0.79001306  0.54108906     0.97600
C1706       C  0.62551256  0.70996380  0.95890985     0.96700
C1707       C  0.62551097  0.70996507  0.54109059     0.88900
C1708       C  0.62551462  0.79001147  0.95890854     0.95100
O1709       O  0.78048606  0.85062883  0.96865757    -0.68600
O1710       O  0.71950906  0.85063155  0.53134342    -0.69600
O1711       O  0.71951104  0.85063047  0.96865608    -0.58200
O1712       O  0.78048412  0.85062946  0.53134527    -0.66600
O1713       O  0.78045571  0.89831929  0.53132086    -0.66200
O1714       O  0.71954253  0.89832031  0.96867927    -0.57400
O1715       O  0.71954076  0.89832128  0.53131883    -0.69900
O1716       O  0.78045738  0.89831864  0.96868106    -0.68700
Cu1717     Cu  0.74999752  0.84893610  0.50000060     1.04600
Cu1718     Cu  0.74999916  0.89999316  0.49999999     1.04300
C1719       C  0.79002331  0.87448810  0.95891124     0.97600
C1720       C  0.70997314  0.87449152  0.54108901     0.96700
C1721       C  0.70997565  0.87449014  0.95890917     0.88900
C1722       C  0.79002100  0.87448884  0.54109160     0.95100
O1723       O  0.89831600  0.71953055  0.53132219    -0.68600
O1724       O  0.89831669  0.78044536  0.96868278    -0.69600
O1725       O  0.89831474  0.78044507  0.53132248    -0.58200
O1726       O  0.89831798  0.71953075  0.96868243    -0.66600
O1727       O  0.85062829  0.71949924  0.96865683    -0.66200
O1728       O  0.85062495  0.78047432  0.53134518    -0.57400
O1729       O  0.85062699  0.78047447  0.96865721    -0.69900
O1730       O  0.85062621  0.71949903  0.53134482    -0.68700
Cu1731     Cu  0.89998954  0.74998800  0.00000250     1.04600
Cu1732     Cu  0.84893254  0.74998673  0.00000097     1.02700
C1733       C  0.87448581  0.70996359  0.54109199     0.97600
C1734       C  0.87448673  0.79001135  0.95891174     0.96700
C1735       C  0.87448416  0.79001098  0.54109226     0.88900
C1736       C  0.87448840  0.70996363  0.95891127     0.95100
O1737       O  0.64831641  0.53044564  0.71867988    -0.68600
O1738       O  0.64831638  0.96953004  0.78131809    -0.69600
O1739       O  0.64831454  0.96953127  0.71867844    -0.58200
O1740       O  0.64831780  0.53044450  0.78131953    -0.66600
O1741       O  0.60062796  0.53047560  0.78134466    -0.66200
O1742       O  0.60062471  0.96950194  0.71865569    -0.57400
O1743       O  0.60062655  0.96950054  0.78134361    -0.69900
O1744       O  0.60062657  0.53047694  0.71865684    -0.68700
Cu1745     Cu  0.64998945  0.99998782  0.74999892     1.04600
Cu1746     Cu  0.59893236  0.99998879  0.75000030     1.04300
C1747       C  0.62448632  0.54001260  0.70891002     0.97600
C1748       C  0.62448632  0.95996386  0.79108905     0.96700
C1749       C  0.62448391  0.95996555  0.70890846     0.88900
C1750       C  0.62448804  0.54001114  0.79109062     0.95100
O1751       O  0.53048683  0.89934775  0.78134364    -0.68600
O1752       O  0.96950947  0.89934775  0.71865777    -0.69600
O1753       O  0.96951161  0.89934716  0.78134547    -0.58200
O1754       O  0.53048460  0.89934879  0.71865571    -0.66600
O1755       O  0.53045499  0.85165898  0.71867901    -0.66200
O1756       O  0.96954201  0.85165734  0.78132094    -0.57400
O1757       O  0.96954018  0.85165793  0.71868123    -0.69900
O1758       O  0.53045690  0.85165797  0.78131888    -0.68700
Cu1759     Cu  0.99999811  0.90104190  0.75000070     1.04600
Cu1760     Cu  0.49999857  0.84998482  0.74999997     1.04300
C1761       C  0.54002348  0.87548807  0.79108933     0.97600
C1762       C  0.95997320  0.87548805  0.70891147     0.96700
C1763       C  0.95997574  0.87548737  0.79109177     0.88900
C1764       C  0.54002073  0.87548945  0.70890862     0.95100
O1765       O  0.85168037  0.53044379  0.78132235    -0.68600
O1766       O  0.85168032  0.96952908  0.71868289    -0.69600
O1767       O  0.85168254  0.96952926  0.78132247    -0.58200
O1768       O  0.85167838  0.53044382  0.71868270    -0.66600
O1769       O  0.89936819  0.53047574  0.71865676    -0.66200
O1770       O  0.89937223  0.96950056  0.78134492    -0.57400
O1771       O  0.89937014  0.96950052  0.71865688    -0.69900
O1772       O  0.89937022  0.53047584  0.78134484    -0.68700
Cu1773     Cu  0.85000726  0.99998640  0.75000264     1.04600
Cu1774     Cu  0.90106429  0.99998822  0.75000080     1.04300
C1775       C  0.87551047  0.54001102  0.79109200     0.97600
C1776       C  0.87551036  0.95996347  0.70891160     0.96700
C1777       C  0.87551317  0.95996361  0.79109214     0.88900
C1778       C  0.87550785  0.54001115  0.70891144     0.95100
O1779       O  0.53048502  0.60062247  0.71865555    -0.68600
O1780       O  0.96951085  0.60062208  0.78134460    -0.69600
O1781       O  0.96950972  0.60062251  0.71865664    -0.58200
O1782       O  0.53048612  0.60062192  0.78134369    -0.66600
O1783       O  0.53045606  0.64831168  0.78131996    -0.66200
O1784       O  0.96954017  0.64831228  0.71868122    -0.57400
O1785       O  0.96954143  0.64831179  0.78132088    -0.69900
O1786       O  0.53045492  0.64831227  0.71868013    -0.68700
Cu1787     Cu  0.99999790  0.59892816  0.75000007     1.04600
Cu1788     Cu  0.49999818  0.64998518  0.75000056     1.04300
C1789       C  0.54002116  0.62448226  0.70890937     0.97600
C1790       C  0.95997506  0.62448168  0.79109132     0.96700
C1791       C  0.95997332  0.62448227  0.70891087     0.88900
C1792       C  0.54002241  0.62448153  0.79109024     0.95100
C1793       C  0.64681697  0.62543565  0.60357981     0.06600
C1794       C  0.62544796  0.64680795  0.60358003     0.06600
C1795       C  0.60376840  0.64621989  0.62499972    -0.13900
C1796       C  0.60317748  0.62454031  0.64641924     0.06600
C1797       C  0.62454678  0.60316840  0.64641929     0.06600
C1798       C  0.64622620  0.60375623  0.62499952    -0.13900
H1799       H  0.66268211  0.58729821  0.62499964     0.08600
H1800       H  0.58731238  0.66267842  0.62500002     0.08600
C1801       C  0.87454561  0.64680781  0.60358282     0.06600
C1802       C  0.85317605  0.62543594  0.60358263     0.06600
C1803       C  0.85376628  0.60375661  0.62500244    -0.13900
C1804       C  0.87544567  0.60316832  0.64642223     0.06600
C1805       C  0.89681532  0.62454013  0.64642234     0.06600
C1806       C  0.89622496  0.64621956  0.62500265    -0.13900
H1807       H  0.91268147  0.66267771  0.62500270     0.08600
H1808       H  0.83730996  0.58729820  0.62500215     0.08600
C1809       C  0.87454968  0.64680690  0.89642152     0.06600
C1810       C  0.85317998  0.62543510  0.89642168     0.06600
C1811       C  0.85377038  0.60375557  0.87500211    -0.13900
C1812       C  0.87544980  0.60316724  0.85358232     0.06600
C1813       C  0.89681942  0.62453907  0.85358213     0.06600
C1814       C  0.89622903  0.64621855  0.87500169    -0.13900
H1815       H  0.91268574  0.66267703  0.87500133     0.08600
H1816       H  0.83731405  0.58729729  0.87500237     0.08600
C1817       C  0.85317652  0.87454055  0.60358246     0.06600
C1818       C  0.87454429  0.85316705  0.60358290     0.06600
C1819       C  0.89622343  0.85375347  0.62500310    -0.13900
C1820       C  0.89681537  0.87543297  0.64642279     0.06600
C1821       C  0.87544755  0.89680636  0.64642239     0.06600
C1822       C  0.85376837  0.89621978  0.62500232    -0.13900
H1823       H  0.83731338  0.91267930  0.62500192     0.08600
H1824       H  0.91267855  0.83729476  0.62500296     0.08600
C1825       C  0.85318107  0.87454160  0.89642249     0.06600
C1826       C  0.87454898  0.85316823  0.89642227     0.06600
C1827       C  0.89622821  0.85375471  0.87500230    -0.13900
C1828       C  0.89682012  0.87543388  0.85358244     0.06600
C1829       C  0.87545233  0.89680742  0.85358269     0.06600
C1830       C  0.85377304  0.89622092  0.87500273    -0.13900
H1831       H  0.83731781  0.91268022  0.87500286     0.08600
H1832       H  0.91268330  0.83729516  0.87500211     0.08600
C1833       C  0.64681414  0.87454614  0.60357616     0.06600
C1834       C  0.62544685  0.85317202  0.60357667     0.06600
C1835       C  0.60376742  0.85375833  0.62499665    -0.13900
C1836       C  0.60317522  0.87543766  0.64641643     0.06600
C1837       C  0.62454284  0.89681141  0.64641607     0.06600
C1838       C  0.64622189  0.89622558  0.62499580    -0.13900
H1839       H  0.66267664  0.91268482  0.62499579     0.08600
H1840       H  0.58731267  0.83729848  0.62499722     0.08600
C1841       C  0.64682004  0.87454167  0.89641832     0.06600
C1842       C  0.62545278  0.85316751  0.89641784     0.06600
C1843       C  0.60377358  0.85375363  0.87499774    -0.13900
C1844       C  0.60318129  0.87543310  0.85357809     0.06600
C1845       C  0.62454892  0.89680690  0.85357841     0.06600
C1846       C  0.64622807  0.89622090  0.87499851    -0.13900
H1847       H  0.66268263  0.91268039  0.87499889     0.08600
H1848       H  0.58731855  0.83729389  0.87499757     0.08600
C1849       C  0.64681795  0.62543413  0.89642064     0.06600
C1850       C  0.62544911  0.64680649  0.89642025     0.06600
C1851       C  0.60376949  0.64621842  0.87500051    -0.13900
C1852       C  0.60317865  0.62453871  0.85358092     0.06600
C1853       C  0.62454791  0.60316672  0.85358124     0.06600
C1854       C  0.64622711  0.60375460  0.87500113    -0.13900
H1855       H  0.66268306  0.58729609  0.87500136     0.08600
H1856       H  0.58731394  0.66267669  0.87500015     0.08600
C1857       C  0.58058504  0.62462771  0.83176636    -0.08900
C1858       C  0.56194782  0.62454158  0.81331097    -0.10500
C1859       C  0.58058361  0.62462912  0.66823333    -0.08900
C1860       C  0.56194615  0.62454271  0.68668837    -0.10500
C1861       C  0.91940939  0.62462881  0.66823627    -0.08900
C1862       C  0.93804729  0.62454260  0.68669087    -0.10500
C1863       C  0.93805013  0.62454172  0.81331234    -0.08900
C1864       C  0.91941291  0.62462792  0.83176763    -0.10500
C1865       C  0.87545011  0.56193622  0.81331272    -0.08900
C1866       C  0.87536293  0.58057355  0.83176790    -0.10500
C1867       C  0.87544626  0.56193672  0.68669104    -0.08900
C1868       C  0.87535893  0.58057446  0.66823632    -0.10500
C1869       C  0.87544986  0.93803788  0.68669129    -0.08900
C1870       C  0.87536219  0.91940017  0.66823656    -0.10500
C1871       C  0.87545411  0.93803823  0.81331289    -0.08900
C1872       C  0.87536691  0.91940090  0.83176811    -0.10500
C1873       C  0.56194530  0.87543040  0.68668714    -0.08900
C1874       C  0.58058221  0.87534617  0.66823149    -0.10500
C1875       C  0.56194951  0.87542805  0.81330933    -0.08900
C1876       C  0.58058740  0.87534255  0.83176395    -0.10500
C1877       C  0.93805073  0.87542734  0.81331266    -0.08900
C1878       C  0.91941344  0.87534279  0.83176784    -0.10500
C1879       C  0.93804704  0.87542811  0.68669163    -0.08900
C1880       C  0.91940912  0.87534272  0.66823706    -0.10500
C1881       C  0.62463359  0.58057511  0.66823402    -0.08900
C1882       C  0.62454653  0.56193795  0.68668936    -0.10500
C1883       C  0.62454879  0.56193613  0.81331153    -0.08900
C1884       C  0.62463518  0.58057337  0.83176673    -0.10500
C1885       C  0.62454666  0.93803811  0.81330921    -0.08900
C1886       C  0.62463418  0.91940047  0.83176401    -0.10500
C1887       C  0.62454285  0.93804096  0.68668703    -0.08900
C1888       C  0.62462901  0.91940422  0.66823124    -0.10500
C1889       C  0.87454584  0.68803835  0.56331281    -0.08900
C1890       C  0.87463276  0.66940121  0.58176819    -0.10500
C1891       C  0.87463018  0.83057362  0.58176829    -0.08900
C1892       C  0.87454324  0.81193631  0.56331304    -0.10500
C1893       C  0.87454717  0.81193704  0.93669146    -0.08900
C1894       C  0.87463450  0.83057471  0.91823668    -0.10500
C1895       C  0.87463660  0.66940062  0.91823575    -0.08900
C1896       C  0.87454948  0.68803820  0.93669067    -0.10500
C1897       C  0.81194610  0.87454784  0.56331242    -0.08900
C1898       C  0.83058334  0.87463170  0.58176765    -0.10500
C1899       C  0.66940816  0.87463696  0.58176235    -0.08900
C1900       C  0.68804654  0.87455197  0.56330831    -0.10500
C1901       C  0.66941318  0.87463352  0.91823312    -0.08900
C1902       C  0.68805049  0.87454972  0.93668832    -0.10500
C1903       C  0.83058728  0.87463199  0.91823669    -0.08900
C1904       C  0.81194940  0.87454715  0.93669132    -0.10500
C1905       C  0.62536268  0.83057764  0.58176299    -0.08900
C1906       C  0.62545145  0.81193935  0.56330879    -0.10500
C1907       C  0.62536195  0.66940196  0.58176603    -0.08900
C1908       C  0.62544978  0.68803965  0.56331121    -0.10500
C1909       C  0.62545181  0.68803823  0.93668922    -0.08900
C1910       C  0.62536337  0.66940060  0.91823426    -0.10500
C1911       C  0.62536775  0.83057400  0.91823247    -0.08900
C1912       C  0.62545514  0.81193660  0.93668761    -0.10500
C1913       C  0.68804803  0.62543111  0.56331034    -0.08900
C1914       C  0.66941045  0.62534591  0.58176526    -0.10500
C1915       C  0.83058285  0.62534661  0.58176786    -0.08900
C1916       C  0.81194580  0.62543211  0.56331242    -0.10500
C1917       C  0.83058626  0.62534609  0.91823594    -0.08900
C1918       C  0.81194833  0.62543156  0.93669052    -0.10500
C1919       C  0.68804923  0.62543026  0.93668958    -0.08900
C1920       C  0.66941160  0.62534478  0.91823484    -0.10500
loop_ 
_geom_bond_atom_site_label_1 
_geom_bond_atom_site_label_2 
_geom_bond_distance 
_geom_bond_site_symmetry_2 
_ccdc_geom_bond_type 
O1           C11   1.277       .  A
O1         Cu249   2.010       .  S
O2           C12   1.277       .  A
O2           Cu9   2.010       .  S
O3           C13   1.277       .  A
O3         Cu249   2.010       .  S
O4           C14   1.277       .  A
O4           Cu9   2.010       .  S
O5           C14   1.276       .  A
O5         Cu250   2.008       .  S
O6           C13   1.276       .  A
O6          Cu10   2.008       .  S
O7           C12   1.276       .  A
O7         Cu250   2.008       .  S
O8           C11   1.276       .  A
O8          Cu10   2.008       .  S
Cu9         O241   2.010   1_554  S
Cu9         O243   2.010   1_554  S
Cu9        Cu250   2.380       .  S
Cu10        O245   2.008       .  S
Cu10        O247   2.008       .  S
Cu10       Cu249   2.380       .  S
C11         C239   1.434       .  S
C12         C236   1.434       .  S
C13         C238   1.434       .  S
C14         C233   1.434       .  S
O15          C25   1.276       .  A
O15         Cu23   2.008   1_554  S
O16          C26   1.276       .  A
O16        Cu263   2.008       .  S
O17          C27   1.276       .  A
O17         Cu23   2.008   1_554  S
O18          C28   1.276       .  A
O18        Cu263   2.008       .  S
O19          C28   1.277       .  A
O19        Cu264   2.010       .  S
O20          C27   1.277       .  A
O20         Cu24   2.010       .  S
O21          C26   1.277       .  A
O21        Cu264   2.010       .  S
O22          C25   1.277       .  A
O22         Cu24   2.010       .  S
Cu23        O256   2.008       .  S
Cu23        O258   2.008       .  S
Cu23        Cu24   2.380   1_556  S
Cu24        O259   2.010   1_554  S
Cu24        O261   2.010   1_554  S
C25         C226   1.434       .  S
C26         C229   1.434       .  S
C27         C228   1.434       .  S
C28         C232   1.434       .  S
O29          C39   1.277       .  A
O29        Cu277   2.010       .  S
O30          C40   1.277       .  A
O30         Cu37   2.010       .  S
O31          C41   1.277       .  A
O31        Cu277   2.010       .  S
O32          C42   1.277       .  A
O32         Cu37   2.010       .  S
O33          C42   1.276       .  A
O33         Cu38   2.008       .  S
O34          C41   1.276       .  A
O34        Cu278   2.008       .  S
O35          C40   1.276       .  A
O35         Cu38   2.008       .  S
O36          C39   1.276       .  A
O36        Cu278   2.008       .  S
Cu37        O269   2.010   1_554  S
Cu37        O271   2.010   1_554  S
Cu37        Cu38   2.380       .  S
Cu38        O274   2.008   1_554  S
Cu38        O276   2.008   1_554  S
C39         C224   1.434       .  S
C40         C220   1.434       .  S
C41         C222   1.434       .  S
C42         C217   1.434       .  S
O43          C53   1.276       .  A
O43        Cu291   2.008       .  S
O44          C54   1.276       .  A
O44         Cu51   2.008       .  S
O45          C55   1.276       .  A
O45        Cu291   2.008       .  S
O46          C56   1.276       .  A
O46         Cu51   2.008       .  S
O47          C56   1.277       .  A
O47         Cu52   2.010       .  S
O48          C55   1.277       .  A
O48        Cu292   2.010       .  S
O49          C54   1.277       .  A
O49         Cu52   2.010       .  S
O50          C53   1.277       .  A
O50        Cu292   2.010       .  S
Cu51        O283   2.008       .  S
Cu51        O285   2.008       .  S
Cu51        Cu52   2.380       .  S
Cu52        O288   2.010       .  S
Cu52        O290   2.010       .  S
C53         C209   1.434       .  S
C54         C213   1.434       .  S
C55         C212   1.434       .  S
C56         C216   1.434       .  S
O57          C67   1.276       .  A
O57        Cu545   2.008   1_545  S
O58          C68   1.276       .  A
O58         Cu65   2.008       .  S
O59          C69   1.276       .  A
O59         Cu65   2.008       .  S
O60          C70   1.276       .  A
O60        Cu545   2.008   1_545  S
O61          C70   1.277       .  A
O61        Cu546   2.010   1_545  S
O62          C69   1.277       .  A
O62         Cu66   2.010       .  S
O63          C68   1.277       .  A
O63         Cu66   2.010       .  S
O64          C67   1.277       .  A
O64        Cu546   2.010   1_545  S
Cu65        O537   2.008       .  S
Cu65        O540   2.008       .  S
Cu65        Cu66   2.380       .  S
Cu66        O541   2.010       .  S
Cu66        O544   2.010       .  S
C67         C202   1.434       .  S
C68         C205   1.434       .  S
C69         C207   1.434       .  S
C70         C203   1.434       .  S
O71          C81   1.277       .  A
O71       Cu1039   2.010   1_455  S
O72          C82   1.277       .  A
O72         Cu79   2.010       .  S
O73          C83   1.277       .  A
O73         Cu79   2.010       .  S
O74          C84   1.277       .  A
O74       Cu1039   2.010   1_455  S
O75          C84   1.276       .  A
O75         Cu80   2.008   1_455  S
O76          C83   1.276       .  A
O76       Cu1040   2.008       .  S
O77          C82   1.276       .  A
O77       Cu1040   2.008       .  S
O78          C81   1.276       .  A
O78         Cu80   2.008   1_455  S
Cu79       O1031   2.010       .  S
Cu79       O1034   2.010       .  S
Cu79      Cu1040   2.380       .  S
Cu80       O1036   2.008       .  S
Cu80       O1037   2.008       .  S
Cu80      Cu1039   2.380       .  S
C81         C195   1.434       .  S
C82         C199   1.434       .  S
C83         C197   1.434       .  S
C84         C193   1.434       .  S
O85          C95   1.276       .  A
O85        Cu573   2.008   1_545  S
O86          C96   1.276       .  A
O86         Cu93   2.008       .  S
O87          C97   1.276       .  A
O87         Cu93   2.008       .  S
O88          C98   1.276       .  A
O88        Cu573   2.008   1_545  S
O89          C98   1.277       .  A
O89        Cu574   2.010   1_545  S
O90          C97   1.277       .  A
O90         Cu94   2.010       .  S
O91          C96   1.277       .  A
O91         Cu94   2.010       .  S
O92          C95   1.277       .  A
O92        Cu574   2.010   1_545  S
Cu93        O565   2.008       .  S
Cu93        O568   2.008       .  S
Cu93        Cu94   2.380       .  S
Cu94        O569   2.010       .  S
Cu94        O572   2.010       .  S
C95         C185   1.434       .  S
C96         C189   1.434       .  S
C97         C191   1.434       .  S
C98         C187   1.434       .  S
O99         C109   1.277       .  A
O99       Cu1067   2.010   1_455  S
O100        C110   1.277       .  A
O100       Cu107   2.010       .  S
O101        C111   1.277       .  A
O101       Cu107   2.010       .  S
O102        C112   1.277       .  A
O102      Cu1067   2.010   1_455  S
O103        C112   1.276       .  A
O103       Cu108   2.008   1_455  S
O104        C111   1.276       .  A
O104      Cu1068   2.008       .  S
O105        C110   1.276       .  A
O105      Cu1068   2.008       .  S
O106        C109   1.276       .  A
O106       Cu108   2.008   1_455  S
Cu107      O1059   2.010       .  S
Cu107      O1062   2.010       .  S
Cu107     Cu1068   2.380       .  S
Cu108      O1064   2.008       .  S
Cu108      O1065   2.008       .  S
Cu108     Cu1067   2.380       .  S
C109        C180   1.434       .  S
C110        C183   1.434       .  S
C111        C182   1.434       .  S
C112        C178   1.434       .  S
C113        C234   1.444       .  S
C113        C114   1.409       .  A
C113        C118   1.401       .  A
C114        C227   1.444       .  S
C114        C115   1.401       .  A
C115        C116   1.401       .  A
C115        H120   1.085       .  S
C116        C179   1.444       .  S
C116        C117   1.409       .  A
C117        C201   1.444       .  S
C117        C118   1.401       .  A
C118        H119   1.085       .  S
C121        C210   1.444       .  S
C121        C122   1.409       .  A
C121        C126   1.401       .  A
C122        C235   1.444       .  S
C122        C123   1.401       .  A
C123        C124   1.401       .  A
C123        H128   1.085       .  S
C124        C188   1.444       .  S
C124        C125   1.409       .  A
C125        C181   1.444       .  S
C125        C126   1.401       .  A
C126        H127   1.085       .  S
C129        C215   1.444       .  S
C129        C130   1.409       .  A
C129        C134   1.401       .  A
C130        C237   1.444       .  S
C130        C131   1.401       .  A
C131        C132   1.401       .  A
C131        H136   1.085       .  S
C132        C186   1.444       .  S
C132        C133   1.409       .  A
C133        C184   1.444       .  S
C133        C134   1.401       .  A
C134        H135   1.085       .  S
C137        C218   1.444       .  S
C137        C138   1.409       .  A
C137        C142   1.401       .  A
C138        C211   1.444       .  S
C138        C139   1.401       .  A
C139        C140   1.401       .  A
C139        H144   1.085       .  S
C140        C200   1.444       .  S
C140        C141   1.409       .  A
C141        C190   1.444       .  S
C141        C142   1.401       .  A
C142        H143   1.085       .  S
C145        C223   1.444       .  S
C145        C146   1.409       .  A
C145        C150   1.401       .  A
C146        C214   1.444       .  S
C146        C147   1.401       .  A
C147        C148   1.401       .  A
C147        H152   1.085       .  S
C148        C198   1.444       .  S
C148        C149   1.409       .  A
C149        C192   1.444       .  S
C149        C150   1.401       .  A
C150        H151   1.085       .  S
C153        C219   1.444       .  S
C153        C154   1.409       .  A
C153        C158   1.401       .  A
C154        C225   1.444       .  S
C154        C155   1.401       .  A
C155        C156   1.401       .  A
C155        H160   1.085       .  S
C156        C194   1.444       .  S
C156        C157   1.409       .  A
C157        C208   1.444       .  S
C157        C158   1.401       .  A
C158        H159   1.085       .  S
C161        C221   1.444       .  S
C161        C162   1.409       .  A
C161        C166   1.401       .  A
C162        C231   1.444       .  S
C162        C163   1.401       .  A
C163        C164   1.401       .  A
C163        H168   1.085       .  S
C164        C196   1.444       .  S
C164        C165   1.409       .  A
C165        C206   1.444       .  S
C165        C166   1.401       .  A
C166        H167   1.085       .  S
C169        C240   1.444       .  S
C169        C170   1.409       .  A
C169        C174   1.401       .  A
C170        C230   1.444       .  S
C170        C171   1.401       .  A
C171        C172   1.401       .  A
C171        H176   1.085       .  S
C172        C177   1.444       .  S
C172        C173   1.409       .  A
C173        C204   1.444       .  S
C173        C174   1.401       .  A
C174        H175   1.085       .  S
C177        C178   1.206       .  T
C179        C180   1.206       .  T
C181        C182   1.206       .  T
C183        C184   1.206       .  T
C185        C186   1.206       .  T
C187        C188   1.206       .  T
C189        C190   1.206       .  T
C191        C192   1.206       .  T
C193        C194   1.206       .  T
C195        C196   1.206       .  T
C197        C198   1.206       .  T
C199        C200   1.206       .  T
C201        C202   1.206       .  T
C203        C204   1.206       .  T
C205        C206   1.206       .  T
C207        C208   1.206       .  T
C209        C210   1.206       .  T
C211        C212   1.206       .  T
C213        C214   1.206       .  T
C215        C216   1.206       .  T
C217        C218   1.206       .  T
C219        C220   1.206       .  T
C221        C222   1.206       .  T
C223        C224   1.206       .  T
C225        C226   1.206       .  T
C227        C228   1.206       .  T
C229        C230   1.206       .  T
C231        C232   1.206       .  T
C233        C234   1.206       .  T
C235        C236   1.206       .  T
C237        C238   1.206       .  T
C239        C240   1.206       .  T
O241        C251   1.277       .  A
O242        C252   1.277       .  A
O242       Cu249   2.010       .  S
O243        C253   1.277       .  A
O244        C254   1.277       .  A
O244       Cu249   2.010       .  S
O245        C254   1.276       .  A
O246        C253   1.276       .  A
O246       Cu250   2.008   1_556  S
O247        C252   1.276       .  A
O248        C251   1.276       .  A
O248       Cu250   2.008   1_556  S
C251        C479   1.434       .  S
C252        C476   1.434       .  S
C253        C478   1.434       .  S
C254        C473   1.434       .  S
O255        C265   1.276       .  A
O255       Cu263   2.008       .  S
O256        C266   1.276       .  A
O257        C267   1.276       .  A
O257       Cu263   2.008       .  S
O258        C268   1.276       .  A
O259        C268   1.277       .  A
O260        C267   1.277       .  A
O260       Cu264   2.010       .  S
O261        C266   1.277       .  A
O262        C265   1.277       .  A
O262       Cu264   2.010       .  S
Cu263      Cu264   2.380       .  S
C265        C466   1.434       .  S
C266        C469   1.434       .  S
C267        C468   1.434       .  S
C268        C472   1.434       .  S
O269        C279   1.277       .  A
O270        C280   1.277       .  A
O270       Cu277   2.010       .  S
O271        C281   1.277       .  A
O272        C282   1.277       .  A
O272       Cu277   2.010       .  S
O273        C282   1.276       .  A
O273       Cu278   2.008       .  S
O274        C281   1.276       .  A
O275        C280   1.276       .  A
O275       Cu278   2.008       .  S
O276        C279   1.276       .  A
Cu277      Cu278   2.380       .  S
C279        C464   1.434       .  S
C280        C460   1.434       .  S
C281        C462   1.434       .  S
C282        C457   1.434       .  S
O283        C293   1.276       .  A
O284        C294   1.276       .  A
O284       Cu291   2.008   1_556  S
O285        C295   1.276       .  A
O286        C296   1.276       .  A
O286       Cu291   2.008   1_556  S
O287        C296   1.277       .  A
O287       Cu292   2.010   1_556  S
O288        C295   1.277       .  A
O289        C294   1.277       .  A
O289       Cu292   2.010   1_556  S
O290        C293   1.277       .  A
Cu291      Cu292   2.380       .  S
C293        C449   1.434       .  S
C294        C453   1.434       .  S
C295        C452   1.434       .  S
C296        C456   1.434       .  S
O297        C307   1.276       .  A
O297       Cu785   2.008   1_545  S
O298        C308   1.276       .  A
O298       Cu305   2.008       .  S
O299        C309   1.276       .  A
O299       Cu305   2.008       .  S
O300        C310   1.276       .  A
O300       Cu785   2.008   1_545  S
O301        C310   1.277       .  A
O301       Cu786   2.010   1_545  S
O302        C309   1.277       .  A
O302       Cu306   2.010       .  S
O303        C308   1.277       .  A
O303       Cu306   2.010       .  S
O304        C307   1.277       .  A
O304       Cu786   2.010   1_545  S
Cu305       O777   2.008       .  S
Cu305       O780   2.008       .  S
Cu305      Cu306   2.380       .  S
Cu306       O781   2.010       .  S
Cu306       O784   2.010       .  S
C307        C442   1.434       .  S
C308        C445   1.434       .  S
C309        C447   1.434       .  S
C310        C443   1.434       .  S
O311        C321   1.277       .  A
O311      Cu1279   2.010   1_455  S
O312        C322   1.277       .  A
O312       Cu319   2.010       .  S
O313        C323   1.277       .  A
O313       Cu319   2.010       .  S
O314        C324   1.277       .  A
O314      Cu1279   2.010   1_455  S
O315        C324   1.276       .  A
O315       Cu320   2.008   1_455  S
O316        C323   1.276       .  A
O316      Cu1280   2.008       .  S
O317        C322   1.276       .  A
O317      Cu1280   2.008       .  S
O318        C321   1.276       .  A
O318       Cu320   2.008   1_455  S
Cu319      O1271   2.010       .  S
Cu319      O1274   2.010       .  S
Cu319     Cu1280   2.380       .  S
Cu320      O1276   2.008       .  S
Cu320      O1277   2.008       .  S
Cu320     Cu1279   2.380       .  S
C321        C435   1.434       .  S
C322        C439   1.434       .  S
C323        C437   1.434       .  S
C324        C433   1.434       .  S
O325        C335   1.276       .  A
O325       Cu813   2.008   1_545  S
O326        C336   1.276       .  A
O326       Cu333   2.008       .  S
O327        C337   1.276       .  A
O327       Cu333   2.008       .  S
O328        C338   1.276       .  A
O328       Cu813   2.008   1_545  S
O329        C338   1.277       .  A
O329       Cu814   2.010   1_545  S
O330        C337   1.277       .  A
O330       Cu334   2.010       .  S
O331        C336   1.277       .  A
O331       Cu334   2.010       .  S
O332        C335   1.277       .  A
O332       Cu814   2.010   1_545  S
Cu333       O805   2.008       .  S
Cu333       O808   2.008       .  S
Cu333      Cu334   2.380       .  S
Cu334       O809   2.010       .  S
Cu334       O812   2.010       .  S
C335        C425   1.434       .  S
C336        C429   1.434       .  S
C337        C431   1.434       .  S
C338        C427   1.434       .  S
O339        C349   1.277       .  A
O339      Cu1307   2.010   1_455  S
O340        C350   1.277       .  A
O340       Cu347   2.010       .  S
O341        C351   1.277       .  A
O341       Cu347   2.010       .  S
O342        C352   1.277       .  A
O342      Cu1307   2.010   1_455  S
O343        C352   1.276       .  A
O343       Cu348   2.008   1_455  S
O344        C351   1.276       .  A
O344      Cu1308   2.008       .  S
O345        C350   1.276       .  A
O345      Cu1308   2.008       .  S
O346        C349   1.276       .  A
O346       Cu348   2.008   1_455  S
Cu347      O1299   2.010       .  S
Cu347      O1302   2.010       .  S
Cu347     Cu1308   2.380       .  S
Cu348      O1304   2.008       .  S
Cu348      O1305   2.008       .  S
Cu348     Cu1307   2.380       .  S
C349        C420   1.434       .  S
C350        C423   1.434       .  S
C351        C422   1.434       .  S
C352        C418   1.434       .  S
C353        C474   1.444       .  S
C353        C354   1.409       .  A
C353        C358   1.401       .  A
C354        C467   1.444       .  S
C354        C355   1.401       .  A
C355        C356   1.401       .  A
C355        H360   1.085       .  S
C356        C419   1.444       .  S
C356        C357   1.409       .  A
C357        C441   1.444       .  S
C357        C358   1.401       .  A
C358        H359   1.085       .  S
C361        C450   1.444       .  S
C361        C362   1.409       .  A
C361        C366   1.401       .  A
C362        C475   1.444       .  S
C362        C363   1.401       .  A
C363        C364   1.401       .  A
C363        H368   1.085       .  S
C364        C428   1.444       .  S
C364        C365   1.409       .  A
C365        C421   1.444       .  S
C365        C366   1.401       .  A
C366        H367   1.085       .  S
C369        C455   1.444       .  S
C369        C370   1.409       .  A
C369        C374   1.401       .  A
C370        C477   1.444       .  S
C370        C371   1.401       .  A
C371        C372   1.401       .  A
C371        H376   1.085       .  S
C372        C426   1.444       .  S
C372        C373   1.409       .  A
C373        C424   1.444       .  S
C373        C374   1.401       .  A
C374        H375   1.085       .  S
C377        C458   1.444       .  S
C377        C378   1.409       .  A
C377        C382   1.401       .  A
C378        C451   1.444       .  S
C378        C379   1.401       .  A
C379        C380   1.401       .  A
C379        H384   1.085       .  S
C380        C440   1.444       .  S
C380        C381   1.409       .  A
C381        C430   1.444       .  S
C381        C382   1.401       .  A
C382        H383   1.085       .  S
C385        C463   1.444       .  S
C385        C386   1.409       .  A
C385        C390   1.401       .  A
C386        C454   1.444       .  S
C386        C387   1.401       .  A
C387        C388   1.401       .  A
C387        H392   1.085       .  S
C388        C438   1.444       .  S
C388        C389   1.409       .  A
C389        C432   1.444       .  S
C389        C390   1.401       .  A
C390        H391   1.085       .  S
C393        C459   1.444       .  S
C393        C394   1.409       .  A
C393        C398   1.401       .  A
C394        C465   1.444       .  S
C394        C395   1.401       .  A
C395        C396   1.401       .  A
C395        H400   1.085       .  S
C396        C434   1.444       .  S
C396        C397   1.409       .  A
C397        C448   1.444       .  S
C397        C398   1.401       .  A
C398        H399   1.085       .  S
C401        C461   1.444       .  S
C401        C402   1.409       .  A
C401        C406   1.401       .  A
C402        C471   1.444       .  S
C402        C403   1.401       .  A
C403        C404   1.401       .  A
C403        H408   1.085       .  S
C404        C436   1.444       .  S
C404        C405   1.409       .  A
C405        C446   1.444       .  S
C405        C406   1.401       .  A
C406        H407   1.085       .  S
C409        C480   1.444       .  S
C409        C410   1.409       .  A
C409        C414   1.401       .  A
C410        C470   1.444       .  S
C410        C411   1.401       .  A
C411        C412   1.401       .  A
C411        H416   1.085       .  S
C412        C417   1.444       .  S
C412        C413   1.409       .  A
C413        C444   1.444       .  S
C413        C414   1.401       .  A
C414        H415   1.085       .  S
C417        C418   1.206       .  T
C419        C420   1.206       .  T
C421        C422   1.206       .  T
C423        C424   1.206       .  T
C425        C426   1.206       .  T
C427        C428   1.206       .  T
C429        C430   1.206       .  T
C431        C432   1.206       .  T
C433        C434   1.206       .  T
C435        C436   1.206       .  T
C437        C438   1.206       .  T
C439        C440   1.206       .  T
C441        C442   1.206       .  T
C443        C444   1.206       .  T
C445        C446   1.206       .  T
C447        C448   1.206       .  T
C449        C450   1.206       .  T
C451        C452   1.206       .  T
C453        C454   1.206       .  T
C455        C456   1.206       .  T
C457        C458   1.206       .  T
C459        C460   1.206       .  T
C461        C462   1.206       .  T
C463        C464   1.206       .  T
C465        C466   1.206       .  T
C467        C468   1.206       .  T
C469        C470   1.206       .  T
C471        C472   1.206       .  T
C473        C474   1.206       .  T
C475        C476   1.206       .  T
C477        C478   1.206       .  T
C479        C480   1.206       .  T
O481        C491   1.277       .  A
O481       Cu729   2.010       .  S
O482        C492   1.277       .  A
O482       Cu489   2.010       .  S
O483        C493   1.277       .  A
O483       Cu729   2.010       .  S
O484        C494   1.277       .  A
O484       Cu489   2.010       .  S
O485        C494   1.276       .  A
O485       Cu730   2.008       .  S
O486        C493   1.276       .  A
O486       Cu490   2.008       .  S
O487        C492   1.276       .  A
O487       Cu730   2.008       .  S
O488        C491   1.276       .  A
O488       Cu490   2.008       .  S
Cu489       O721   2.010   1_554  S
Cu489       O723   2.010   1_554  S
Cu489      Cu730   2.380       .  S
Cu490       O725   2.008       .  S
Cu490       O727   2.008       .  S
Cu490      Cu729   2.380       .  S
C491        C719   1.434       .  S
C492        C716   1.434       .  S
C493        C718   1.434       .  S
C494        C713   1.434       .  S
O495        C505   1.276       .  A
O495       Cu503   2.008   1_554  S
O496        C506   1.276       .  A
O496       Cu743   2.008       .  S
O497        C507   1.276       .  A
O497       Cu503   2.008   1_554  S
O498        C508   1.276       .  A
O498       Cu743   2.008       .  S
O499        C508   1.277       .  A
O499       Cu744   2.010       .  S
O500        C507   1.277       .  A
O500       Cu504   2.010       .  S
O501        C506   1.277       .  A
O501       Cu744   2.010       .  S
O502        C505   1.277       .  A
O502       Cu504   2.010       .  S
Cu503       O736   2.008       .  S
Cu503       O738   2.008       .  S
Cu503      Cu504   2.380   1_556  S
Cu504       O739   2.010   1_554  S
Cu504       O741   2.010   1_554  S
C505        C706   1.434       .  S
C506        C709   1.434       .  S
C507        C708   1.434       .  S
C508        C712   1.434       .  S
O509        C519   1.277       .  A
O509       Cu757   2.010       .  S
O510        C520   1.277       .  A
O510       Cu517   2.010       .  S
O511        C521   1.277       .  A
O511       Cu757   2.010       .  S
O512        C522   1.277       .  A
O512       Cu517   2.010       .  S
O513        C522   1.276       .  A
O513       Cu518   2.008       .  S
O514        C521   1.276       .  A
O514       Cu758   2.008       .  S
O515        C520   1.276       .  A
O515       Cu518   2.008       .  S
O516        C519   1.276       .  A
O516       Cu758   2.008       .  S
Cu517       O749   2.010   1_554  S
Cu517       O751   2.010   1_554  S
Cu517      Cu518   2.380       .  S
Cu518       O754   2.008   1_554  S
Cu518       O756   2.008   1_554  S
C519        C704   1.434       .  S
C520        C700   1.434       .  S
C521        C702   1.434       .  S
C522        C697   1.434       .  S
O523        C533   1.276       .  A
O523       Cu771   2.008       .  S
O524        C534   1.276       .  A
O524       Cu531   2.008       .  S
O525        C535   1.276       .  A
O525       Cu771   2.008       .  S
O526        C536   1.276       .  A
O526       Cu531   2.008       .  S
O527        C536   1.277       .  A
O527       Cu532   2.010       .  S
O528        C535   1.277       .  A
O528       Cu772   2.010       .  S
O529        C534   1.277       .  A
O529       Cu532   2.010       .  S
O530        C533   1.277       .  A
O530       Cu772   2.010       .  S
Cu531       O763   2.008       .  S
Cu531       O765   2.008       .  S
Cu531      Cu532   2.380       .  S
Cu532       O768   2.010       .  S
Cu532       O770   2.010       .  S
C533        C689   1.434       .  S
C534        C693   1.434       .  S
C535        C692   1.434       .  S
C536        C696   1.434       .  S
O537        C547   1.276       .  A
O538        C548   1.276       .  A
O538       Cu545   2.008       .  S
O539        C549   1.276       .  A
O539       Cu545   2.008       .  S
O540        C550   1.276       .  A
O541        C550   1.277       .  A
O542        C549   1.277       .  A
O542       Cu546   2.010       .  S
O543        C548   1.277       .  A
O543       Cu546   2.010       .  S
O544        C547   1.277       .  A
Cu545      Cu546   2.380       .  S
C547        C682   1.434       .  S
C548        C685   1.434       .  S
C549        C687   1.434       .  S
C550        C683   1.434       .  S
O551        C561   1.277       .  A
O551      Cu1519   2.010   1_455  S
O552        C562   1.277       .  A
O552       Cu559   2.010       .  S
O553        C563   1.277       .  A
O553       Cu559   2.010       .  S
O554        C564   1.277       .  A
O554      Cu1519   2.010   1_455  S
O555        C564   1.276       .  A
O555       Cu560   2.008   1_455  S
O556        C563   1.276       .  A
O556      Cu1520   2.008       .  S
O557        C562   1.276       .  A
O557      Cu1520   2.008       .  S
O558        C561   1.276       .  A
O558       Cu560   2.008   1_455  S
Cu559      O1511   2.010       .  S
Cu559      O1514   2.010       .  S
Cu559     Cu1520   2.380       .  S
Cu560      O1516   2.008       .  S
Cu560      O1517   2.008       .  S
Cu560     Cu1519   2.380       .  S
C561        C675   1.434       .  S
C562        C679   1.434       .  S
C563        C677   1.434       .  S
C564        C673   1.434       .  S
O565        C575   1.276       .  A
O566        C576   1.276       .  A
O566       Cu573   2.008       .  S
O567        C577   1.276       .  A
O567       Cu573   2.008       .  S
O568        C578   1.276       .  A
O569        C578   1.277       .  A
O570        C577   1.277       .  A
O570       Cu574   2.010       .  S
O571        C576   1.277       .  A
O571       Cu574   2.010       .  S
O572        C575   1.277       .  A
Cu573      Cu574   2.380       .  S
C575        C665   1.434       .  S
C576        C669   1.434       .  S
C577        C671   1.434       .  S
C578        C667   1.434       .  S
O579        C589   1.277       .  A
O579      Cu1547   2.010   1_455  S
O580        C590   1.277       .  A
O580       Cu587   2.010       .  S
O581        C591   1.277       .  A
O581       Cu587   2.010       .  S
O582        C592   1.277       .  A
O582      Cu1547   2.010   1_455  S
O583        C592   1.276       .  A
O583       Cu588   2.008   1_455  S
O584        C591   1.276       .  A
O584      Cu1548   2.008       .  S
O585        C590   1.276       .  A
O585      Cu1548   2.008       .  S
O586        C589   1.276       .  A
O586       Cu588   2.008   1_455  S
Cu587      O1539   2.010       .  S
Cu587      O1542   2.010       .  S
Cu587     Cu1548   2.380       .  S
Cu588      O1544   2.008       .  S
Cu588      O1545   2.008       .  S
Cu588     Cu1547   2.380       .  S
C589        C660   1.434       .  S
C590        C663   1.434       .  S
C591        C662   1.434       .  S
C592        C658   1.434       .  S
C593        C714   1.444       .  S
C593        C594   1.409       .  A
C593        C598   1.401       .  A
C594        C707   1.444       .  S
C594        C595   1.401       .  A
C595        C596   1.401       .  A
C595        H600   1.085       .  S
C596        C659   1.444       .  S
C596        C597   1.409       .  A
C597        C681   1.444       .  S
C597        C598   1.401       .  A
C598        H599   1.085       .  S
C601        C690   1.444       .  S
C601        C602   1.409       .  A
C601        C606   1.401       .  A
C602        C715   1.444       .  S
C602        C603   1.401       .  A
C603        C604   1.401       .  A
C603        H608   1.085       .  S
C604        C668   1.444       .  S
C604        C605   1.409       .  A
C605        C661   1.444       .  S
C605        C606   1.401       .  A
C606        H607   1.085       .  S
C609        C695   1.444       .  S
C609        C610   1.409       .  A
C609        C614   1.401       .  A
C610        C717   1.444       .  S
C610        C611   1.401       .  A
C611        C612   1.401       .  A
C611        H616   1.085       .  S
C612        C666   1.444       .  S
C612        C613   1.409       .  A
C613        C664   1.444       .  S
C613        C614   1.401       .  A
C614        H615   1.085       .  S
C617        C698   1.444       .  S
C617        C618   1.409       .  A
C617        C622   1.401       .  A
C618        C691   1.444       .  S
C618        C619   1.401       .  A
C619        C620   1.401       .  A
C619        H624   1.085       .  S
C620        C680   1.444       .  S
C620        C621   1.409       .  A
C621        C670   1.444       .  S
C621        C622   1.401       .  A
C622        H623   1.085       .  S
C625        C703   1.444       .  S
C625        C626   1.409       .  A
C625        C630   1.401       .  A
C626        C694   1.444       .  S
C626        C627   1.401       .  A
C627        C628   1.401       .  A
C627        H632   1.085       .  S
C628        C678   1.444       .  S
C628        C629   1.409       .  A
C629        C672   1.444       .  S
C629        C630   1.401       .  A
C630        H631   1.085       .  S
C633        C699   1.444       .  S
C633        C634   1.409       .  A
C633        C638   1.401       .  A
C634        C705   1.444       .  S
C634        C635   1.401       .  A
C635        C636   1.401       .  A
C635        H640   1.085       .  S
C636        C674   1.444       .  S
C636        C637   1.409       .  A
C637        C688   1.444       .  S
C637        C638   1.401       .  A
C638        H639   1.085       .  S
C641        C701   1.444       .  S
C641        C642   1.409       .  A
C641        C646   1.401       .  A
C642        C711   1.444       .  S
C642        C643   1.401       .  A
C643        C644   1.401       .  A
C643        H648   1.085       .  S
C644        C676   1.444       .  S
C644        C645   1.409       .  A
C645        C686   1.444       .  S
C645        C646   1.401       .  A
C646        H647   1.085       .  S
C649        C720   1.444       .  S
C649        C650   1.409       .  A
C649        C654   1.401       .  A
C650        C710   1.444       .  S
C650        C651   1.401       .  A
C651        C652   1.401       .  A
C651        H656   1.085       .  S
C652        C657   1.444       .  S
C652        C653   1.409       .  A
C653        C684   1.444       .  S
C653        C654   1.401       .  A
C654        H655   1.085       .  S
C657        C658   1.206       .  T
C659        C660   1.206       .  T
C661        C662   1.206       .  T
C663        C664   1.206       .  T
C665        C666   1.206       .  T
C667        C668   1.206       .  T
C669        C670   1.206       .  T
C671        C672   1.206       .  T
C673        C674   1.206       .  T
C675        C676   1.206       .  T
C677        C678   1.206       .  T
C679        C680   1.206       .  T
C681        C682   1.206       .  T
C683        C684   1.206       .  T
C685        C686   1.206       .  T
C687        C688   1.206       .  T
C689        C690   1.206       .  T
C691        C692   1.206       .  T
C693        C694   1.206       .  T
C695        C696   1.206       .  T
C697        C698   1.206       .  T
C699        C700   1.206       .  T
C701        C702   1.206       .  T
C703        C704   1.206       .  T
C705        C706   1.206       .  T
C707        C708   1.206       .  T
C709        C710   1.206       .  T
C711        C712   1.206       .  T
C713        C714   1.206       .  T
C715        C716   1.206       .  T
C717        C718   1.206       .  T
C719        C720   1.206       .  T
O721        C731   1.277       .  A
O722        C732   1.277       .  A
O722       Cu729   2.010       .  S
O723        C733   1.277       .  A
O724        C734   1.277       .  A
O724       Cu729   2.010       .  S
O725        C734   1.276       .  A
O726        C733   1.276       .  A
O726       Cu730   2.008   1_556  S
O727        C732   1.276       .  A
O728        C731   1.276       .  A
O728       Cu730   2.008   1_556  S
C731        C959   1.434       .  S
C732        C956   1.434       .  S
C733        C958   1.434       .  S
C734        C953   1.434       .  S
O735        C745   1.276       .  A
O735       Cu743   2.008       .  S
O736        C746   1.276       .  A
O737        C747   1.276       .  A
O737       Cu743   2.008       .  S
O738        C748   1.276       .  A
O739        C748   1.277       .  A
O740        C747   1.277       .  A
O740       Cu744   2.010       .  S
O741        C746   1.277       .  A
O742        C745   1.277       .  A
O742       Cu744   2.010       .  S
Cu743      Cu744   2.380       .  S
C745        C946   1.434       .  S
C746        C949   1.434       .  S
C747        C948   1.434       .  S
C748        C952   1.434       .  S
O749        C759   1.277       .  A
O750        C760   1.277       .  A
O750       Cu757   2.010       .  S
O751        C761   1.277       .  A
O752        C762   1.277       .  A
O752       Cu757   2.010       .  S
O753        C762   1.276       .  A
O753       Cu758   2.008       .  S
O754        C761   1.276       .  A
O755        C760   1.276       .  A
O755       Cu758   2.008       .  S
O756        C759   1.276       .  A
Cu757      Cu758   2.380       .  S
C759        C944   1.434       .  S
C760        C940   1.434       .  S
C761        C942   1.434       .  S
C762        C937   1.434       .  S
O763        C773   1.276       .  A
O764        C774   1.276       .  A
O764       Cu771   2.008   1_556  S
O765        C775   1.276       .  A
O766        C776   1.276       .  A
O766       Cu771   2.008   1_556  S
O767        C776   1.277       .  A
O767       Cu772   2.010   1_556  S
O768        C775   1.277       .  A
O769        C774   1.277       .  A
O769       Cu772   2.010   1_556  S
O770        C773   1.277       .  A
Cu771      Cu772   2.380       .  S
C773        C929   1.434       .  S
C774        C933   1.434       .  S
C775        C932   1.434       .  S
C776        C936   1.434       .  S
O777        C787   1.276       .  A
O778        C788   1.276       .  A
O778       Cu785   2.008       .  S
O779        C789   1.276       .  A
O779       Cu785   2.008       .  S
O780        C790   1.276       .  A
O781        C790   1.277       .  A
O782        C789   1.277       .  A
O782       Cu786   2.010       .  S
O783        C788   1.277       .  A
O783       Cu786   2.010       .  S
O784        C787   1.277       .  A
Cu785      Cu786   2.380       .  S
C787        C922   1.434       .  S
C788        C925   1.434       .  S
C789        C927   1.434       .  S
C790        C923   1.434       .  S
O791        C801   1.277       .  A
O791      Cu1759   2.010   1_455  S
O792        C802   1.277       .  A
O792       Cu799   2.010       .  S
O793        C803   1.277       .  A
O793       Cu799   2.010       .  S
O794        C804   1.277       .  A
O794      Cu1759   2.010   1_455  S
O795        C804   1.276       .  A
O795       Cu800   2.008   1_455  S
O796        C803   1.276       .  A
O796      Cu1760   2.008       .  S
O797        C802   1.276       .  A
O797      Cu1760   2.008       .  S
O798        C801   1.276       .  A
O798       Cu800   2.008   1_455  S
Cu799      O1751   2.010       .  S
Cu799      O1754   2.010       .  S
Cu799     Cu1760   2.380       .  S
Cu800      O1756   2.008       .  S
Cu800      O1757   2.008       .  S
Cu800     Cu1759   2.380       .  S
C801        C915   1.434       .  S
C802        C919   1.434       .  S
C803        C917   1.434       .  S
C804        C913   1.434       .  S
O805        C815   1.276       .  A
O806        C816   1.276       .  A
O806       Cu813   2.008       .  S
O807        C817   1.276       .  A
O807       Cu813   2.008       .  S
O808        C818   1.276       .  A
O809        C818   1.277       .  A
O810        C817   1.277       .  A
O810       Cu814   2.010       .  S
O811        C816   1.277       .  A
O811       Cu814   2.010       .  S
O812        C815   1.277       .  A
Cu813      Cu814   2.380       .  S
C815        C905   1.434       .  S
C816        C909   1.434       .  S
C817        C911   1.434       .  S
C818        C907   1.434       .  S
O819        C829   1.277       .  A
O819      Cu1787   2.010   1_455  S
O820        C830   1.277       .  A
O820       Cu827   2.010       .  S
O821        C831   1.277       .  A
O821       Cu827   2.010       .  S
O822        C832   1.277       .  A
O822      Cu1787   2.010   1_455  S
O823        C832   1.276       .  A
O823       Cu828   2.008   1_455  S
O824        C831   1.276       .  A
O824      Cu1788   2.008       .  S
O825        C830   1.276       .  A
O825      Cu1788   2.008       .  S
O826        C829   1.276       .  A
O826       Cu828   2.008   1_455  S
Cu827      O1779   2.010       .  S
Cu827      O1782   2.010       .  S
Cu827     Cu1788   2.380       .  S
Cu828      O1784   2.008       .  S
Cu828      O1785   2.008       .  S
Cu828     Cu1787   2.380       .  S
C829        C900   1.434       .  S
C830        C903   1.434       .  S
C831        C902   1.434       .  S
C832        C898   1.434       .  S
C833        C954   1.444       .  S
C833        C834   1.409       .  A
C833        C838   1.401       .  A
C834        C947   1.444       .  S
C834        C835   1.401       .  A
C835        C836   1.401       .  A
C835        H840   1.085       .  S
C836        C899   1.444       .  S
C836        C837   1.409       .  A
C837        C921   1.444       .  S
C837        C838   1.401       .  A
C838        H839   1.085       .  S
C841        C930   1.444       .  S
C841        C842   1.409       .  A
C841        C846   1.401       .  A
C842        C955   1.444       .  S
C842        C843   1.401       .  A
C843        C844   1.401       .  A
C843        H848   1.085       .  S
C844        C908   1.444       .  S
C844        C845   1.409       .  A
C845        C901   1.444       .  S
C845        C846   1.401       .  A
C846        H847   1.085       .  S
C849        C935   1.444       .  S
C849        C850   1.409       .  A
C849        C854   1.401       .  A
C850        C957   1.444       .  S
C850        C851   1.401       .  A
C851        C852   1.401       .  A
C851        H856   1.085       .  S
C852        C906   1.444       .  S
C852        C853   1.409       .  A
C853        C904   1.444       .  S
C853        C854   1.401       .  A
C854        H855   1.085       .  S
C857        C938   1.444       .  S
C857        C858   1.409       .  A
C857        C862   1.401       .  A
C858        C931   1.444       .  S
C858        C859   1.401       .  A
C859        C860   1.401       .  A
C859        H864   1.085       .  S
C860        C920   1.444       .  S
C860        C861   1.409       .  A
C861        C910   1.444       .  S
C861        C862   1.401       .  A
C862        H863   1.085       .  S
C865        C943   1.444       .  S
C865        C866   1.409       .  A
C865        C870   1.401       .  A
C866        C934   1.444       .  S
C866        C867   1.401       .  A
C867        C868   1.401       .  A
C867        H872   1.085       .  S
C868        C918   1.444       .  S
C868        C869   1.409       .  A
C869        C912   1.444       .  S
C869        C870   1.401       .  A
C870        H871   1.085       .  S
C873        C939   1.444       .  S
C873        C874   1.409       .  A
C873        C878   1.401       .  A
C874        C945   1.444       .  S
C874        C875   1.401       .  A
C875        C876   1.401       .  A
C875        H880   1.085       .  S
C876        C914   1.444       .  S
C876        C877   1.409       .  A
C877        C928   1.444       .  S
C877        C878   1.401       .  A
C878        H879   1.085       .  S
C881        C941   1.444       .  S
C881        C882   1.409       .  A
C881        C886   1.401       .  A
C882        C951   1.444       .  S
C882        C883   1.401       .  A
C883        C884   1.401       .  A
C883        H888   1.085       .  S
C884        C916   1.444       .  S
C884        C885   1.409       .  A
C885        C926   1.444       .  S
C885        C886   1.401       .  A
C886        H887   1.085       .  S
C889        C960   1.444       .  S
C889        C890   1.409       .  A
C889        C894   1.401       .  A
C890        C950   1.444       .  S
C890        C891   1.401       .  A
C891        C892   1.401       .  A
C891        H896   1.085       .  S
C892        C897   1.444       .  S
C892        C893   1.409       .  A
C893        C924   1.444       .  S
C893        C894   1.401       .  A
C894        H895   1.085       .  S
C897        C898   1.206       .  T
C899        C900   1.206       .  T
C901        C902   1.206       .  T
C903        C904   1.206       .  T
C905        C906   1.206       .  T
C907        C908   1.206       .  T
C909        C910   1.206       .  T
C911        C912   1.206       .  T
C913        C914   1.206       .  T
C915        C916   1.206       .  T
C917        C918   1.206       .  T
C919        C920   1.206       .  T
C921        C922   1.206       .  T
C923        C924   1.206       .  T
C925        C926   1.206       .  T
C927        C928   1.206       .  T
C929        C930   1.206       .  T
C931        C932   1.206       .  T
C933        C934   1.206       .  T
C935        C936   1.206       .  T
C937        C938   1.206       .  T
C939        C940   1.206       .  T
C941        C942   1.206       .  T
C943        C944   1.206       .  T
C945        C946   1.206       .  T
C947        C948   1.206       .  T
C949        C950   1.206       .  T
C951        C952   1.206       .  T
C953        C954   1.206       .  T
C955        C956   1.206       .  T
C957        C958   1.206       .  T
C959        C960   1.206       .  T
O961        C971   1.277       .  A
O961      Cu1209   2.010       .  S
O962        C972   1.277       .  A
O962       Cu969   2.010       .  S
O963        C973   1.277       .  A
O963      Cu1209   2.010       .  S
O964        C974   1.277       .  A
O964       Cu969   2.010       .  S
O965        C974   1.276       .  A
O965      Cu1210   2.008       .  S
O966        C973   1.276       .  A
O966       Cu970   2.008       .  S
O967        C972   1.276       .  A
O967      Cu1210   2.008       .  S
O968        C971   1.276       .  A
O968       Cu970   2.008       .  S
Cu969      O1201   2.010   1_554  S
Cu969      O1203   2.010   1_554  S
Cu969     Cu1210   2.380       .  S
Cu970      O1205   2.008       .  S
Cu970      O1207   2.008       .  S
Cu970     Cu1209   2.380       .  S
C971       C1199   1.434       .  S
C972       C1196   1.434       .  S
C973       C1198   1.434       .  S
C974       C1193   1.434       .  S
O975        C985   1.276       .  A
O975       Cu983   2.008   1_554  S
O976        C986   1.276       .  A
O976      Cu1223   2.008       .  S
O977        C987   1.276       .  A
O977       Cu983   2.008   1_554  S
O978        C988   1.276       .  A
O978      Cu1223   2.008       .  S
O979        C988   1.277       .  A
O979      Cu1224   2.010       .  S
O980        C987   1.277       .  A
O980       Cu984   2.010       .  S
O981        C986   1.277       .  A
O981      Cu1224   2.010       .  S
O982        C985   1.277       .  A
O982       Cu984   2.010       .  S
Cu983      O1216   2.008       .  S
Cu983      O1218   2.008       .  S
Cu983      Cu984   2.380   1_556  S
Cu984      O1219   2.010   1_554  S
Cu984      O1221   2.010   1_554  S
C985       C1186   1.434       .  S
C986       C1189   1.434       .  S
C987       C1188   1.434       .  S
C988       C1192   1.434       .  S
O989        C999   1.277       .  A
O989      Cu1237   2.010       .  S
O990       C1000   1.277       .  A
O990       Cu997   2.010       .  S
O991       C1001   1.277       .  A
O991      Cu1237   2.010       .  S
O992       C1002   1.277       .  A
O992       Cu997   2.010       .  S
O993       C1002   1.276       .  A
O993       Cu998   2.008       .  S
O994       C1001   1.276       .  A
O994      Cu1238   2.008       .  S
O995       C1000   1.276       .  A
O995       Cu998   2.008       .  S
O996        C999   1.276       .  A
O996      Cu1238   2.008       .  S
Cu997      O1229   2.010   1_554  S
Cu997      O1231   2.010   1_554  S
Cu997      Cu998   2.380       .  S
Cu998      O1234   2.008   1_554  S
Cu998      O1236   2.008   1_554  S
C999       C1184   1.434       .  S
C1000      C1180   1.434       .  S
C1001      C1182   1.434       .  S
C1002      C1177   1.434       .  S
O1003      C1013   1.276       .  A
O1003     Cu1251   2.008       .  S
O1004      C1014   1.276       .  A
O1004     Cu1011   2.008       .  S
O1005      C1015   1.276       .  A
O1005     Cu1251   2.008       .  S
O1006      C1016   1.276       .  A
O1006     Cu1011   2.008       .  S
O1007      C1016   1.277       .  A
O1007     Cu1012   2.010       .  S
O1008      C1015   1.277       .  A
O1008     Cu1252   2.010       .  S
O1009      C1014   1.277       .  A
O1009     Cu1012   2.010       .  S
O1010      C1013   1.277       .  A
O1010     Cu1252   2.010       .  S
Cu1011     O1243   2.008       .  S
Cu1011     O1245   2.008       .  S
Cu1011    Cu1012   2.380       .  S
Cu1012     O1248   2.010       .  S
Cu1012     O1250   2.010       .  S
C1013      C1169   1.434       .  S
C1014      C1173   1.434       .  S
C1015      C1172   1.434       .  S
C1016      C1176   1.434       .  S
O1017      C1027   1.276       .  A
O1017     Cu1505   2.008   1_545  S
O1018      C1028   1.276       .  A
O1018     Cu1025   2.008       .  S
O1019      C1029   1.276       .  A
O1019     Cu1025   2.008       .  S
O1020      C1030   1.276       .  A
O1020     Cu1505   2.008   1_545  S
O1021      C1030   1.277       .  A
O1021     Cu1506   2.010   1_545  S
O1022      C1029   1.277       .  A
O1022     Cu1026   2.010       .  S
O1023      C1028   1.277       .  A
O1023     Cu1026   2.010       .  S
O1024      C1027   1.277       .  A
O1024     Cu1506   2.010   1_545  S
Cu1025     O1497   2.008       .  S
Cu1025     O1500   2.008       .  S
Cu1025    Cu1026   2.380       .  S
Cu1026     O1501   2.010       .  S
Cu1026     O1504   2.010       .  S
C1027      C1162   1.434       .  S
C1028      C1165   1.434       .  S
C1029      C1167   1.434       .  S
C1030      C1163   1.434       .  S
O1031      C1041   1.277       .  A
O1032      C1042   1.277       .  A
O1032     Cu1039   2.010       .  S
O1033      C1043   1.277       .  A
O1033     Cu1039   2.010       .  S
O1034      C1044   1.277       .  A
O1035      C1044   1.276       .  A
O1035     Cu1040   2.008       .  S
O1036      C1043   1.276       .  A
O1037      C1042   1.276       .  A
O1038      C1041   1.276       .  A
O1038     Cu1040   2.008       .  S
C1041      C1155   1.434       .  S
C1042      C1159   1.434       .  S
C1043      C1157   1.434       .  S
C1044      C1153   1.434       .  S
O1045      C1055   1.276       .  A
O1045     Cu1533   2.008   1_545  S
O1046      C1056   1.276       .  A
O1046     Cu1053   2.008       .  S
O1047      C1057   1.276       .  A
O1047     Cu1053   2.008       .  S
O1048      C1058   1.276       .  A
O1048     Cu1533   2.008   1_545  S
O1049      C1058   1.277       .  A
O1049     Cu1534   2.010   1_545  S
O1050      C1057   1.277       .  A
O1050     Cu1054   2.010       .  S
O1051      C1056   1.277       .  A
O1051     Cu1054   2.010       .  S
O1052      C1055   1.277       .  A
O1052     Cu1534   2.010   1_545  S
Cu1053     O1525   2.008       .  S
Cu1053     O1528   2.008       .  S
Cu1053    Cu1054   2.380       .  S
Cu1054     O1529   2.010       .  S
Cu1054     O1532   2.010       .  S
C1055      C1145   1.434       .  S
C1056      C1149   1.434       .  S
C1057      C1151   1.434       .  S
C1058      C1147   1.434       .  S
O1059      C1069   1.277       .  A
O1060      C1070   1.277       .  A
O1060     Cu1067   2.010       .  S
O1061      C1071   1.277       .  A
O1061     Cu1067   2.010       .  S
O1062      C1072   1.277       .  A
O1063      C1072   1.276       .  A
O1063     Cu1068   2.008       .  S
O1064      C1071   1.276       .  A
O1065      C1070   1.276       .  A
O1066      C1069   1.276       .  A
O1066     Cu1068   2.008       .  S
C1069      C1140   1.434       .  S
C1070      C1143   1.434       .  S
C1071      C1142   1.434       .  S
C1072      C1138   1.434       .  S
C1073      C1194   1.444       .  S
C1073      C1074   1.409       .  A
C1073      C1078   1.401       .  A
C1074      C1187   1.444       .  S
C1074      C1075   1.401       .  A
C1075      C1076   1.401       .  A
C1075      H1080   1.085       .  S
C1076      C1139   1.444       .  S
C1076      C1077   1.409       .  A
C1077      C1161   1.444       .  S
C1077      C1078   1.401       .  A
C1078      H1079   1.085       .  S
C1081      C1170   1.444       .  S
C1081      C1082   1.409       .  A
C1081      C1086   1.401       .  A
C1082      C1195   1.444       .  S
C1082      C1083   1.401       .  A
C1083      C1084   1.401       .  A
C1083      H1088   1.085       .  S
C1084      C1148   1.444       .  S
C1084      C1085   1.409       .  A
C1085      C1141   1.444       .  S
C1085      C1086   1.401       .  A
C1086      H1087   1.085       .  S
C1089      C1175   1.444       .  S
C1089      C1090   1.409       .  A
C1089      C1094   1.401       .  A
C1090      C1197   1.444       .  S
C1090      C1091   1.401       .  A
C1091      C1092   1.401       .  A
C1091      H1096   1.085       .  S
C1092      C1146   1.444       .  S
C1092      C1093   1.409       .  A
C1093      C1144   1.444       .  S
C1093      C1094   1.401       .  A
C1094      H1095   1.085       .  S
C1097      C1178   1.444       .  S
C1097      C1098   1.409       .  A
C1097      C1102   1.401       .  A
C1098      C1171   1.444       .  S
C1098      C1099   1.401       .  A
C1099      C1100   1.401       .  A
C1099      H1104   1.085       .  S
C1100      C1160   1.444       .  S
C1100      C1101   1.409       .  A
C1101      C1150   1.444       .  S
C1101      C1102   1.401       .  A
C1102      H1103   1.085       .  S
C1105      C1183   1.444       .  S
C1105      C1106   1.409       .  A
C1105      C1110   1.401       .  A
C1106      C1174   1.444       .  S
C1106      C1107   1.401       .  A
C1107      C1108   1.401       .  A
C1107      H1112   1.085       .  S
C1108      C1158   1.444       .  S
C1108      C1109   1.409       .  A
C1109      C1152   1.444       .  S
C1109      C1110   1.401       .  A
C1110      H1111   1.085       .  S
C1113      C1179   1.444       .  S
C1113      C1114   1.409       .  A
C1113      C1118   1.401       .  A
C1114      C1185   1.444       .  S
C1114      C1115   1.401       .  A
C1115      C1116   1.401       .  A
C1115      H1120   1.085       .  S
C1116      C1154   1.444       .  S
C1116      C1117   1.409       .  A
C1117      C1168   1.444       .  S
C1117      C1118   1.401       .  A
C1118      H1119   1.085       .  S
C1121      C1181   1.444       .  S
C1121      C1122   1.409       .  A
C1121      C1126   1.401       .  A
C1122      C1191   1.444       .  S
C1122      C1123   1.401       .  A
C1123      C1124   1.401       .  A
C1123      H1128   1.085       .  S
C1124      C1156   1.444       .  S
C1124      C1125   1.409       .  A
C1125      C1166   1.444       .  S
C1125      C1126   1.401       .  A
C1126      H1127   1.085       .  S
C1129      C1200   1.444       .  S
C1129      C1130   1.409       .  A
C1129      C1134   1.401       .  A
C1130      C1190   1.444       .  S
C1130      C1131   1.401       .  A
C1131      C1132   1.401       .  A
C1131      H1136   1.085       .  S
C1132      C1137   1.444       .  S
C1132      C1133   1.409       .  A
C1133      C1164   1.444       .  S
C1133      C1134   1.401       .  A
C1134      H1135   1.085       .  S
C1137      C1138   1.206       .  T
C1139      C1140   1.206       .  T
C1141      C1142   1.206       .  T
C1143      C1144   1.206       .  T
C1145      C1146   1.206       .  T
C1147      C1148   1.206       .  T
C1149      C1150   1.206       .  T
C1151      C1152   1.206       .  T
C1153      C1154   1.206       .  T
C1155      C1156   1.206       .  T
C1157      C1158   1.206       .  T
C1159      C1160   1.206       .  T
C1161      C1162   1.206       .  T
C1163      C1164   1.206       .  T
C1165      C1166   1.206       .  T
C1167      C1168   1.206       .  T
C1169      C1170   1.206       .  T
C1171      C1172   1.206       .  T
C1173      C1174   1.206       .  T
C1175      C1176   1.206       .  T
C1177      C1178   1.206       .  T
C1179      C1180   1.206       .  T
C1181      C1182   1.206       .  T
C1183      C1184   1.206       .  T
C1185      C1186   1.206       .  T
C1187      C1188   1.206       .  T
C1189      C1190   1.206       .  T
C1191      C1192   1.206       .  T
C1193      C1194   1.206       .  T
C1195      C1196   1.206       .  T
C1197      C1198   1.206       .  T
C1199      C1200   1.206       .  T
O1201      C1211   1.277       .  A
O1202      C1212   1.277       .  A
O1202     Cu1209   2.010       .  S
O1203      C1213   1.277       .  A
O1204      C1214   1.277       .  A
O1204     Cu1209   2.010       .  S
O1205      C1214   1.276       .  A
O1206      C1213   1.276       .  A
O1206     Cu1210   2.008   1_556  S
O1207      C1212   1.276       .  A
O1208      C1211   1.276       .  A
O1208     Cu1210   2.008   1_556  S
C1211      C1439   1.434       .  S
C1212      C1436   1.434       .  S
C1213      C1438   1.434       .  S
C1214      C1433   1.434       .  S
O1215      C1225   1.276       .  A
O1215     Cu1223   2.008       .  S
O1216      C1226   1.276       .  A
O1217      C1227   1.276       .  A
O1217     Cu1223   2.008       .  S
O1218      C1228   1.276       .  A
O1219      C1228   1.277       .  A
O1220      C1227   1.277       .  A
O1220     Cu1224   2.010       .  S
O1221      C1226   1.277       .  A
O1222      C1225   1.277       .  A
O1222     Cu1224   2.010       .  S
Cu1223    Cu1224   2.380       .  S
C1225      C1426   1.434       .  S
C1226      C1429   1.434       .  S
C1227      C1428   1.434       .  S
C1228      C1432   1.434       .  S
O1229      C1239   1.277       .  A
O1230      C1240   1.277       .  A
O1230     Cu1237   2.010       .  S
O1231      C1241   1.277       .  A
O1232      C1242   1.277       .  A
O1232     Cu1237   2.010       .  S
O1233      C1242   1.276       .  A
O1233     Cu1238   2.008       .  S
O1234      C1241   1.276       .  A
O1235      C1240   1.276       .  A
O1235     Cu1238   2.008       .  S
O1236      C1239   1.276       .  A
Cu1237    Cu1238   2.380       .  S
C1239      C1424   1.434       .  S
C1240      C1420   1.434       .  S
C1241      C1422   1.434       .  S
C1242      C1417   1.434       .  S
O1243      C1253   1.276       .  A
O1244      C1254   1.276       .  A
O1244     Cu1251   2.008   1_556  S
O1245      C1255   1.276       .  A
O1246      C1256   1.276       .  A
O1246     Cu1251   2.008   1_556  S
O1247      C1256   1.277       .  A
O1247     Cu1252   2.010   1_556  S
O1248      C1255   1.277       .  A
O1249      C1254   1.277       .  A
O1249     Cu1252   2.010   1_556  S
O1250      C1253   1.277       .  A
Cu1251    Cu1252   2.380       .  S
C1253      C1409   1.434       .  S
C1254      C1413   1.434       .  S
C1255      C1412   1.434       .  S
C1256      C1416   1.434       .  S
O1257      C1267   1.276       .  A
O1257     Cu1745   2.008   1_545  S
O1258      C1268   1.276       .  A
O1258     Cu1265   2.008       .  S
O1259      C1269   1.276       .  A
O1259     Cu1265   2.008       .  S
O1260      C1270   1.276       .  A
O1260     Cu1745   2.008   1_545  S
O1261      C1270   1.277       .  A
O1261     Cu1746   2.010   1_545  S
O1262      C1269   1.277       .  A
O1262     Cu1266   2.010       .  S
O1263      C1268   1.277       .  A
O1263     Cu1266   2.010       .  S
O1264      C1267   1.277       .  A
O1264     Cu1746   2.010   1_545  S
Cu1265     O1737   2.008       .  S
Cu1265     O1740   2.008       .  S
Cu1265    Cu1266   2.380       .  S
Cu1266     O1741   2.010       .  S
Cu1266     O1744   2.010       .  S
C1267      C1402   1.434       .  S
C1268      C1405   1.434       .  S
C1269      C1407   1.434       .  S
C1270      C1403   1.434       .  S
O1271      C1281   1.277       .  A
O1272      C1282   1.277       .  A
O1272     Cu1279   2.010       .  S
O1273      C1283   1.277       .  A
O1273     Cu1279   2.010       .  S
O1274      C1284   1.277       .  A
O1275      C1284   1.276       .  A
O1275     Cu1280   2.008       .  S
O1276      C1283   1.276       .  A
O1277      C1282   1.276       .  A
O1278      C1281   1.276       .  A
O1278     Cu1280   2.008       .  S
C1281      C1395   1.434       .  S
C1282      C1399   1.434       .  S
C1283      C1397   1.434       .  S
C1284      C1393   1.434       .  S
O1285      C1295   1.276       .  A
O1285     Cu1773   2.008   1_545  S
O1286      C1296   1.276       .  A
O1286     Cu1293   2.008       .  S
O1287      C1297   1.276       .  A
O1287     Cu1293   2.008       .  S
O1288      C1298   1.276       .  A
O1288     Cu1773   2.008   1_545  S
O1289      C1298   1.277       .  A
O1289     Cu1774   2.010   1_545  S
O1290      C1297   1.277       .  A
O1290     Cu1294   2.010       .  S
O1291      C1296   1.277       .  A
O1291     Cu1294   2.010       .  S
O1292      C1295   1.277       .  A
O1292     Cu1774   2.010   1_545  S
Cu1293     O1765   2.008       .  S
Cu1293     O1768   2.008       .  S
Cu1293    Cu1294   2.380       .  S
Cu1294     O1769   2.010       .  S
Cu1294     O1772   2.010       .  S
C1295      C1385   1.434       .  S
C1296      C1389   1.434       .  S
C1297      C1391   1.434       .  S
C1298      C1387   1.434       .  S
O1299      C1309   1.277       .  A
O1300      C1310   1.277       .  A
O1300     Cu1307   2.010       .  S
O1301      C1311   1.277       .  A
O1301     Cu1307   2.010       .  S
O1302      C1312   1.277       .  A
O1303      C1312   1.276       .  A
O1303     Cu1308   2.008       .  S
O1304      C1311   1.276       .  A
O1305      C1310   1.276       .  A
O1306      C1309   1.276       .  A
O1306     Cu1308   2.008       .  S
C1309      C1380   1.434       .  S
C1310      C1383   1.434       .  S
C1311      C1382   1.434       .  S
C1312      C1378   1.434       .  S
C1313      C1434   1.444       .  S
C1313      C1314   1.409       .  A
C1313      C1318   1.401       .  A
C1314      C1427   1.444       .  S
C1314      C1315   1.401       .  A
C1315      C1316   1.401       .  A
C1315      H1320   1.085       .  S
C1316      C1379   1.444       .  S
C1316      C1317   1.409       .  A
C1317      C1401   1.444       .  S
C1317      C1318   1.401       .  A
C1318      H1319   1.085       .  S
C1321      C1410   1.444       .  S
C1321      C1322   1.409       .  A
C1321      C1326   1.401       .  A
C1322      C1435   1.444       .  S
C1322      C1323   1.401       .  A
C1323      C1324   1.401       .  A
C1323      H1328   1.085       .  S
C1324      C1388   1.444       .  S
C1324      C1325   1.409       .  A
C1325      C1381   1.444       .  S
C1325      C1326   1.401       .  A
C1326      H1327   1.085       .  S
C1329      C1415   1.444       .  S
C1329      C1330   1.409       .  A
C1329      C1334   1.401       .  A
C1330      C1437   1.444       .  S
C1330      C1331   1.401       .  A
C1331      C1332   1.401       .  A
C1331      H1336   1.085       .  S
C1332      C1386   1.444       .  S
C1332      C1333   1.409       .  A
C1333      C1384   1.444       .  S
C1333      C1334   1.401       .  A
C1334      H1335   1.085       .  S
C1337      C1418   1.444       .  S
C1337      C1338   1.409       .  A
C1337      C1342   1.401       .  A
C1338      C1411   1.444       .  S
C1338      C1339   1.401       .  A
C1339      C1340   1.401       .  A
C1339      H1344   1.085       .  S
C1340      C1400   1.444       .  S
C1340      C1341   1.409       .  A
C1341      C1390   1.444       .  S
C1341      C1342   1.401       .  A
C1342      H1343   1.085       .  S
C1345      C1423   1.444       .  S
C1345      C1346   1.409       .  A
C1345      C1350   1.401       .  A
C1346      C1414   1.444       .  S
C1346      C1347   1.401       .  A
C1347      C1348   1.401       .  A
C1347      H1352   1.085       .  S
C1348      C1398   1.444       .  S
C1348      C1349   1.409       .  A
C1349      C1392   1.444       .  S
C1349      C1350   1.401       .  A
C1350      H1351   1.085       .  S
C1353      C1419   1.444       .  S
C1353      C1354   1.409       .  A
C1353      C1358   1.401       .  A
C1354      C1425   1.444       .  S
C1354      C1355   1.401       .  A
C1355      C1356   1.401       .  A
C1355      H1360   1.085       .  S
C1356      C1394   1.444       .  S
C1356      C1357   1.409       .  A
C1357      C1408   1.444       .  S
C1357      C1358   1.401       .  A
C1358      H1359   1.085       .  S
C1361      C1421   1.444       .  S
C1361      C1362   1.409       .  A
C1361      C1366   1.401       .  A
C1362      C1431   1.444       .  S
C1362      C1363   1.401       .  A
C1363      C1364   1.401       .  A
C1363      H1368   1.085       .  S
C1364      C1396   1.444       .  S
C1364      C1365   1.409       .  A
C1365      C1406   1.444       .  S
C1365      C1366   1.401       .  A
C1366      H1367   1.085       .  S
C1369      C1440   1.444       .  S
C1369      C1370   1.409       .  A
C1369      C1374   1.401       .  A
C1370      C1430   1.444       .  S
C1370      C1371   1.401       .  A
C1371      C1372   1.401       .  A
C1371      H1376   1.085       .  S
C1372      C1377   1.444       .  S
C1372      C1373   1.409       .  A
C1373      C1404   1.444       .  S
C1373      C1374   1.401       .  A
C1374      H1375   1.085       .  S
C1377      C1378   1.206       .  T
C1379      C1380   1.206       .  T
C1381      C1382   1.206       .  T
C1383      C1384   1.206       .  T
C1385      C1386   1.206       .  T
C1387      C1388   1.206       .  T
C1389      C1390   1.206       .  T
C1391      C1392   1.206       .  T
C1393      C1394   1.206       .  T
C1395      C1396   1.206       .  T
C1397      C1398   1.206       .  T
C1399      C1400   1.206       .  T
C1401      C1402   1.206       .  T
C1403      C1404   1.206       .  T
C1405      C1406   1.206       .  T
C1407      C1408   1.206       .  T
C1409      C1410   1.206       .  T
C1411      C1412   1.206       .  T
C1413      C1414   1.206       .  T
C1415      C1416   1.206       .  T
C1417      C1418   1.206       .  T
C1419      C1420   1.206       .  T
C1421      C1422   1.206       .  T
C1423      C1424   1.206       .  T
C1425      C1426   1.206       .  T
C1427      C1428   1.206       .  T
C1429      C1430   1.206       .  T
C1431      C1432   1.206       .  T
C1433      C1434   1.206       .  T
C1435      C1436   1.206       .  T
C1437      C1438   1.206       .  T
C1439      C1440   1.206       .  T
O1441      C1451   1.277       .  A
O1441     Cu1689   2.010       .  S
O1442      C1452   1.277       .  A
O1442     Cu1449   2.010       .  S
O1443      C1453   1.277       .  A
O1443     Cu1689   2.010       .  S
O1444      C1454   1.277       .  A
O1444     Cu1449   2.010       .  S
O1445      C1454   1.276       .  A
O1445     Cu1690   2.008       .  S
O1446      C1453   1.276       .  A
O1446     Cu1450   2.008       .  S
O1447      C1452   1.276       .  A
O1447     Cu1690   2.008       .  S
O1448      C1451   1.276       .  A
O1448     Cu1450   2.008       .  S
Cu1449     O1681   2.010   1_554  S
Cu1449     O1683   2.010   1_554  S
Cu1449    Cu1690   2.380       .  S
Cu1450     O1685   2.008       .  S
Cu1450     O1687   2.008       .  S
Cu1450    Cu1689   2.380       .  S
C1451      C1679   1.434       .  S
C1452      C1676   1.434       .  S
C1453      C1678   1.434       .  S
C1454      C1673   1.434       .  S
O1455      C1465   1.276       .  A
O1455     Cu1463   2.008   1_554  S
O1456      C1466   1.276       .  A
O1456     Cu1703   2.008       .  S
O1457      C1467   1.276       .  A
O1457     Cu1463   2.008   1_554  S
O1458      C1468   1.276       .  A
O1458     Cu1703   2.008       .  S
O1459      C1468   1.277       .  A
O1459     Cu1704   2.010       .  S
O1460      C1467   1.277       .  A
O1460     Cu1464   2.010       .  S
O1461      C1466   1.277       .  A
O1461     Cu1704   2.010       .  S
O1462      C1465   1.277       .  A
O1462     Cu1464   2.010       .  S
Cu1463     O1696   2.008       .  S
Cu1463     O1698   2.008       .  S
Cu1463    Cu1464   2.380   1_556  S
Cu1464     O1699   2.010   1_554  S
Cu1464     O1701   2.010   1_554  S
C1465      C1666   1.434       .  S
C1466      C1669   1.434       .  S
C1467      C1668   1.434       .  S
C1468      C1672   1.434       .  S
O1469      C1479   1.277       .  A
O1469     Cu1717   2.010       .  S
O1470      C1480   1.277       .  A
O1470     Cu1477   2.010       .  S
O1471      C1481   1.277       .  A
O1471     Cu1717   2.010       .  S
O1472      C1482   1.277       .  A
O1472     Cu1477   2.010       .  S
O1473      C1482   1.276       .  A
O1473     Cu1478   2.008       .  S
O1474      C1481   1.276       .  A
O1474     Cu1718   2.008       .  S
O1475      C1480   1.276       .  A
O1475     Cu1478   2.008       .  S
O1476      C1479   1.276       .  A
O1476     Cu1718   2.008       .  S
Cu1477     O1709   2.010   1_554  S
Cu1477     O1711   2.010   1_554  S
Cu1477    Cu1478   2.380       .  S
Cu1478     O1714   2.008   1_554  S
Cu1478     O1716   2.008   1_554  S
C1479      C1664   1.434       .  S
C1480      C1660   1.434       .  S
C1481      C1662   1.434       .  S
C1482      C1657   1.434       .  S
O1483      C1493   1.276       .  A
O1483     Cu1731   2.008       .  S
O1484      C1494   1.276       .  A
O1484     Cu1491   2.008       .  S
O1485      C1495   1.276       .  A
O1485     Cu1731   2.008       .  S
O1486      C1496   1.276       .  A
O1486     Cu1491   2.008       .  S
O1487      C1496   1.277       .  A
O1487     Cu1492   2.010       .  S
O1488      C1495   1.277       .  A
O1488     Cu1732   2.010       .  S
O1489      C1494   1.277       .  A
O1489     Cu1492   2.010       .  S
O1490      C1493   1.277       .  A
O1490     Cu1732   2.010       .  S
Cu1491     O1723   2.008       .  S
Cu1491     O1725   2.008       .  S
Cu1491    Cu1492   2.380       .  S
Cu1492     O1728   2.010       .  S
Cu1492     O1730   2.010       .  S
C1493      C1649   1.434       .  S
C1494      C1653   1.434       .  S
C1495      C1652   1.434       .  S
C1496      C1656   1.434       .  S
O1497      C1507   1.276       .  A
O1498      C1508   1.276       .  A
O1498     Cu1505   2.008       .  S
O1499      C1509   1.276       .  A
O1499     Cu1505   2.008       .  S
O1500      C1510   1.276       .  A
O1501      C1510   1.277       .  A
O1502      C1509   1.277       .  A
O1502     Cu1506   2.010       .  S
O1503      C1508   1.277       .  A
O1503     Cu1506   2.010       .  S
O1504      C1507   1.277       .  A
Cu1505    Cu1506   2.380       .  S
C1507      C1642   1.434       .  S
C1508      C1645   1.434       .  S
C1509      C1647   1.434       .  S
C1510      C1643   1.434       .  S
O1511      C1521   1.277       .  A
O1512      C1522   1.277       .  A
O1512     Cu1519   2.010       .  S
O1513      C1523   1.277       .  A
O1513     Cu1519   2.010       .  S
O1514      C1524   1.277       .  A
O1515      C1524   1.276       .  A
O1515     Cu1520   2.008       .  S
O1516      C1523   1.276       .  A
O1517      C1522   1.276       .  A
O1518      C1521   1.276       .  A
O1518     Cu1520   2.008       .  S
C1521      C1635   1.434       .  S
C1522      C1639   1.434       .  S
C1523      C1637   1.434       .  S
C1524      C1633   1.434       .  S
O1525      C1535   1.276       .  A
O1526      C1536   1.276       .  A
O1526     Cu1533   2.008       .  S
O1527      C1537   1.276       .  A
O1527     Cu1533   2.008       .  S
O1528      C1538   1.276       .  A
O1529      C1538   1.277       .  A
O1530      C1537   1.277       .  A
O1530     Cu1534   2.010       .  S
O1531      C1536   1.277       .  A
O1531     Cu1534   2.010       .  S
O1532      C1535   1.277       .  A
Cu1533    Cu1534   2.380       .  S
C1535      C1625   1.434       .  S
C1536      C1629   1.434       .  S
C1537      C1631   1.434       .  S
C1538      C1627   1.434       .  S
O1539      C1549   1.277       .  A
O1540      C1550   1.277       .  A
O1540     Cu1547   2.010       .  S
O1541      C1551   1.277       .  A
O1541     Cu1547   2.010       .  S
O1542      C1552   1.277       .  A
O1543      C1552   1.276       .  A
O1543     Cu1548   2.008       .  S
O1544      C1551   1.276       .  A
O1545      C1550   1.276       .  A
O1546      C1549   1.276       .  A
O1546     Cu1548   2.008       .  S
C1549      C1620   1.434       .  S
C1550      C1623   1.434       .  S
C1551      C1622   1.434       .  S
C1552      C1618   1.434       .  S
C1553      C1674   1.444       .  S
C1553      C1554   1.409       .  A
C1553      C1558   1.401       .  A
C1554      C1667   1.444       .  S
C1554      C1555   1.401       .  A
C1555      C1556   1.401       .  A
C1555      H1560   1.085       .  S
C1556      C1619   1.444       .  S
C1556      C1557   1.409       .  A
C1557      C1641   1.444       .  S
C1557      C1558   1.401       .  A
C1558      H1559   1.085       .  S
C1561      C1650   1.444       .  S
C1561      C1562   1.409       .  A
C1561      C1566   1.401       .  A
C1562      C1675   1.444       .  S
C1562      C1563   1.401       .  A
C1563      C1564   1.401       .  A
C1563      H1568   1.085       .  S
C1564      C1628   1.444       .  S
C1564      C1565   1.409       .  A
C1565      C1621   1.444       .  S
C1565      C1566   1.401       .  A
C1566      H1567   1.085       .  S
C1569      C1655   1.444       .  S
C1569      C1570   1.409       .  A
C1569      C1574   1.401       .  A
C1570      C1677   1.444       .  S
C1570      C1571   1.401       .  A
C1571      C1572   1.401       .  A
C1571      H1576   1.085       .  S
C1572      C1626   1.444       .  S
C1572      C1573   1.409       .  A
C1573      C1624   1.444       .  S
C1573      C1574   1.401       .  A
C1574      H1575   1.085       .  S
C1577      C1658   1.444       .  S
C1577      C1578   1.409       .  A
C1577      C1582   1.401       .  A
C1578      C1651   1.444       .  S
C1578      C1579   1.401       .  A
C1579      C1580   1.401       .  A
C1579      H1584   1.085       .  S
C1580      C1640   1.444       .  S
C1580      C1581   1.409       .  A
C1581      C1630   1.444       .  S
C1581      C1582   1.401       .  A
C1582      H1583   1.085       .  S
C1585      C1663   1.444       .  S
C1585      C1586   1.409       .  A
C1585      C1590   1.401       .  A
C1586      C1654   1.444       .  S
C1586      C1587   1.401       .  A
C1587      C1588   1.401       .  A
C1587      H1592   1.085       .  S
C1588      C1638   1.444       .  S
C1588      C1589   1.409       .  A
C1589      C1632   1.444       .  S
C1589      C1590   1.401       .  A
C1590      H1591   1.085       .  S
C1593      C1659   1.444       .  S
C1593      C1594   1.409       .  A
C1593      C1598   1.401       .  A
C1594      C1665   1.444       .  S
C1594      C1595   1.401       .  A
C1595      C1596   1.401       .  A
C1595      H1600   1.085       .  S
C1596      C1634   1.444       .  S
C1596      C1597   1.409       .  A
C1597      C1648   1.444       .  S
C1597      C1598   1.401       .  A
C1598      H1599   1.085       .  S
C1601      C1661   1.444       .  S
C1601      C1602   1.409       .  A
C1601      C1606   1.401       .  A
C1602      C1671   1.444       .  S
C1602      C1603   1.401       .  A
C1603      C1604   1.401       .  A
C1603      H1608   1.085       .  S
C1604      C1636   1.444       .  S
C1604      C1605   1.409       .  A
C1605      C1646   1.444       .  S
C1605      C1606   1.401       .  A
C1606      H1607   1.085       .  S
C1609      C1680   1.444       .  S
C1609      C1610   1.409       .  A
C1609      C1614   1.401       .  A
C1610      C1670   1.444       .  S
C1610      C1611   1.401       .  A
C1611      C1612   1.401       .  A
C1611      H1616   1.085       .  S
C1612      C1617   1.444       .  S
C1612      C1613   1.409       .  A
C1613      C1644   1.444       .  S
C1613      C1614   1.401       .  A
C1614      H1615   1.085       .  S
C1617      C1618   1.206       .  T
C1619      C1620   1.206       .  T
C1621      C1622   1.206       .  T
C1623      C1624   1.206       .  T
C1625      C1626   1.206       .  T
C1627      C1628   1.206       .  T
C1629      C1630   1.206       .  T
C1631      C1632   1.206       .  T
C1633      C1634   1.206       .  T
C1635      C1636   1.206       .  T
C1637      C1638   1.206       .  T
C1639      C1640   1.206       .  T
C1641      C1642   1.206       .  T
C1643      C1644   1.206       .  T
C1645      C1646   1.206       .  T
C1647      C1648   1.206       .  T
C1649      C1650   1.206       .  T
C1651      C1652   1.206       .  T
C1653      C1654   1.206       .  T
C1655      C1656   1.206       .  T
C1657      C1658   1.206       .  T
C1659      C1660   1.206       .  T
C1661      C1662   1.206       .  T
C1663      C1664   1.206       .  T
C1665      C1666   1.206       .  T
C1667      C1668   1.206       .  T
C1669      C1670   1.206       .  T
C1671      C1672   1.206       .  T
C1673      C1674   1.206       .  T
C1675      C1676   1.206       .  T
C1677      C1678   1.206       .  T
C1679      C1680   1.206       .  T
O1681      C1691   1.277       .  A
O1682      C1692   1.277       .  A
O1682     Cu1689   2.010       .  S
O1683      C1693   1.277       .  A
O1684      C1694   1.277       .  A
O1684     Cu1689   2.010       .  S
O1685      C1694   1.276       .  A
O1686      C1693   1.276       .  A
O1686     Cu1690   2.008   1_556  S
O1687      C1692   1.276       .  A
O1688      C1691   1.276       .  A
O1688     Cu1690   2.008   1_556  S
C1691      C1919   1.434       .  S
C1692      C1916   1.434       .  S
C1693      C1918   1.434       .  S
C1694      C1913   1.434       .  S
O1695      C1705   1.276       .  A
O1695     Cu1703   2.008       .  S
O1696      C1706   1.276       .  A
O1697      C1707   1.276       .  A
O1697     Cu1703   2.008       .  S
O1698      C1708   1.276       .  A
O1699      C1708   1.277       .  A
O1700      C1707   1.277       .  A
O1700     Cu1704   2.010       .  S
O1701      C1706   1.277       .  A
O1702      C1705   1.277       .  A
O1702     Cu1704   2.010       .  S
Cu1703    Cu1704   2.380       .  S
C1705      C1906   1.434       .  S
C1706      C1909   1.434       .  S
C1707      C1908   1.434       .  S
C1708      C1912   1.434       .  S
O1709      C1719   1.277       .  A
O1710      C1720   1.277       .  A
O1710     Cu1717   2.010       .  S
O1711      C1721   1.277       .  A
O1712      C1722   1.277       .  A
O1712     Cu1717   2.010       .  S
O1713      C1722   1.276       .  A
O1713     Cu1718   2.008       .  S
O1714      C1721   1.276       .  A
O1715      C1720   1.276       .  A
O1715     Cu1718   2.008       .  S
O1716      C1719   1.276       .  A
Cu1717    Cu1718   2.380       .  S
C1719      C1904   1.434       .  S
C1720      C1900   1.434       .  S
C1721      C1902   1.434       .  S
C1722      C1897   1.434       .  S
O1723      C1733   1.276       .  A
O1724      C1734   1.276       .  A
O1724     Cu1731   2.008   1_556  S
O1725      C1735   1.276       .  A
O1726      C1736   1.276       .  A
O1726     Cu1731   2.008   1_556  S
O1727      C1736   1.277       .  A
O1727     Cu1732   2.010   1_556  S
O1728      C1735   1.277       .  A
O1729      C1734   1.277       .  A
O1729     Cu1732   2.010   1_556  S
O1730      C1733   1.277       .  A
Cu1731    Cu1732   2.380       .  S
C1733      C1889   1.434       .  S
C1734      C1893   1.434       .  S
C1735      C1892   1.434       .  S
C1736      C1896   1.434       .  S
O1737      C1747   1.276       .  A
O1738      C1748   1.276       .  A
O1738     Cu1745   2.008       .  S
O1739      C1749   1.276       .  A
O1739     Cu1745   2.008       .  S
O1740      C1750   1.276       .  A
O1741      C1750   1.277       .  A
O1742      C1749   1.277       .  A
O1742     Cu1746   2.010       .  S
O1743      C1748   1.277       .  A
O1743     Cu1746   2.010       .  S
O1744      C1747   1.277       .  A
Cu1745    Cu1746   2.380       .  S
C1747      C1882   1.434       .  S
C1748      C1885   1.434       .  S
C1749      C1887   1.434       .  S
C1750      C1883   1.434       .  S
O1751      C1761   1.277       .  A
O1752      C1762   1.277       .  A
O1752     Cu1759   2.010       .  S
O1753      C1763   1.277       .  A
O1753     Cu1759   2.010       .  S
O1754      C1764   1.277       .  A
O1755      C1764   1.276       .  A
O1755     Cu1760   2.008       .  S
O1756      C1763   1.276       .  A
O1757      C1762   1.276       .  A
O1758      C1761   1.276       .  A
O1758     Cu1760   2.008       .  S
C1761      C1875   1.434       .  S
C1762      C1879   1.434       .  S
C1763      C1877   1.434       .  S
C1764      C1873   1.434       .  S
O1765      C1775   1.276       .  A
O1766      C1776   1.276       .  A
O1766     Cu1773   2.008       .  S
O1767      C1777   1.276       .  A
O1767     Cu1773   2.008       .  S
O1768      C1778   1.276       .  A
O1769      C1778   1.277       .  A
O1770      C1777   1.277       .  A
O1770     Cu1774   2.010       .  S
O1771      C1776   1.277       .  A
O1771     Cu1774   2.010       .  S
O1772      C1775   1.277       .  A
Cu1773    Cu1774   2.380       .  S
C1775      C1865   1.434       .  S
C1776      C1869   1.434       .  S
C1777      C1871   1.434       .  S
C1778      C1867   1.434       .  S
O1779      C1789   1.277       .  A
O1780      C1790   1.277       .  A
O1780     Cu1787   2.010       .  S
O1781      C1791   1.277       .  A
O1781     Cu1787   2.010       .  S
O1782      C1792   1.277       .  A
O1783      C1792   1.276       .  A
O1783     Cu1788   2.008       .  S
O1784      C1791   1.276       .  A
O1785      C1790   1.276       .  A
O1786      C1789   1.276       .  A
O1786     Cu1788   2.008       .  S
C1789      C1860   1.434       .  S
C1790      C1863   1.434       .  S
C1791      C1862   1.434       .  S
C1792      C1858   1.434       .  S
C1793      C1914   1.444       .  S
C1793      C1794   1.409       .  A
C1793      C1798   1.401       .  A
C1794      C1907   1.444       .  S
C1794      C1795   1.401       .  A
C1795      C1796   1.401       .  A
C1795      H1800   1.085       .  S
C1796      C1859   1.444       .  S
C1796      C1797   1.409       .  A
C1797      C1881   1.444       .  S
C1797      C1798   1.401       .  A
C1798      H1799   1.085       .  S
C1801      C1890   1.444       .  S
C1801      C1802   1.409       .  A
C1801      C1806   1.401       .  A
C1802      C1915   1.444       .  S
C1802      C1803   1.401       .  A
C1803      C1804   1.401       .  A
C1803      H1808   1.085       .  S
C1804      C1868   1.444       .  S
C1804      C1805   1.409       .  A
C1805      C1861   1.444       .  S
C1805      C1806   1.401       .  A
C1806      H1807   1.085       .  S
C1809      C1895   1.444       .  S
C1809      C1810   1.409       .  A
C1809      C1814   1.401       .  A
C1810      C1917   1.444       .  S
C1810      C1811   1.401       .  A
C1811      C1812   1.401       .  A
C1811      H1816   1.085       .  S
C1812      C1866   1.444       .  S
C1812      C1813   1.409       .  A
C1813      C1864   1.444       .  S
C1813      C1814   1.401       .  A
C1814      H1815   1.085       .  S
C1817      C1898   1.444       .  S
C1817      C1818   1.409       .  A
C1817      C1822   1.401       .  A
C1818      C1891   1.444       .  S
C1818      C1819   1.401       .  A
C1819      C1820   1.401       .  A
C1819      H1824   1.085       .  S
C1820      C1880   1.444       .  S
C1820      C1821   1.409       .  A
C1821      C1870   1.444       .  S
C1821      C1822   1.401       .  A
C1822      H1823   1.085       .  S
C1825      C1903   1.444       .  S
C1825      C1826   1.409       .  A
C1825      C1830   1.401       .  A
C1826      C1894   1.444       .  S
C1826      C1827   1.401       .  A
C1827      C1828   1.401       .  A
C1827      H1832   1.085       .  S
C1828      C1878   1.444       .  S
C1828      C1829   1.409       .  A
C1829      C1872   1.444       .  S
C1829      C1830   1.401       .  A
C1830      H1831   1.085       .  S
C1833      C1899   1.444       .  S
C1833      C1834   1.409       .  A
C1833      C1838   1.401       .  A
C1834      C1905   1.444       .  S
C1834      C1835   1.401       .  A
C1835      C1836   1.401       .  A
C1835      H1840   1.085       .  S
C1836      C1874   1.444       .  S
C1836      C1837   1.409       .  A
C1837      C1888   1.444       .  S
C1837      C1838   1.401       .  A
C1838      H1839   1.085       .  S
C1841      C1901   1.444       .  S
C1841      C1842   1.409       .  A
C1841      C1846   1.401       .  A
C1842      C1911   1.444       .  S
C1842      C1843   1.401       .  A
C1843      C1844   1.401       .  A
C1843      H1848   1.085       .  S
C1844      C1876   1.444       .  S
C1844      C1845   1.409       .  A
C1845      C1886   1.444       .  S
C1845      C1846   1.401       .  A
C1846      H1847   1.085       .  S
C1849      C1920   1.444       .  S
C1849      C1850   1.409       .  A
C1849      C1854   1.401       .  A
C1850      C1910   1.444       .  S
C1850      C1851   1.401       .  A
C1851      C1852   1.401       .  A
C1851      H1856   1.085       .  S
C1852      C1857   1.444       .  S
C1852      C1853   1.409       .  A
C1853      C1884   1.444       .  S
C1853      C1854   1.401       .  A
C1854      H1855   1.085       .  S
C1857      C1858   1.206       .  T
C1859      C1860   1.206       .  T
C1861      C1862   1.206       .  T
C1863      C1864   1.206       .  T
C1865      C1866   1.206       .  T
C1867      C1868   1.206       .  T
C1869      C1870   1.206       .  T
C1871      C1872   1.206       .  T
C1873      C1874   1.206       .  T
C1875      C1876   1.206       .  T
C1877      C1878   1.206       .  T
C1879      C1880   1.206       .  T
C1881      C1882   1.206       .  T
C1883      C1884   1.206       .  T
C1885      C1886   1.206       .  T
C1887      C1888   1.206       .  T
C1889      C1890   1.206       .  T
C1891      C1892   1.206       .  T
C1893      C1894   1.206       .  T
C1895      C1896   1.206       .  T
C1897      C1898   1.206       .  T
C1899      C1900   1.206       .  T
C1901      C1902   1.206       .  T
C1903      C1904   1.206       .  T
C1905      C1906   1.206       .  T
C1907      C1908   1.206       .  T
C1909      C1910   1.206       .  T
C1911      C1912   1.206       .  T
C1913      C1914   1.206       .  T
C1915      C1916   1.206       .  T
C1917      C1918   1.206       .  T
C1919      C1920   1.206       .  T
