geometry optimzed in LAMMPS
_audit_creation_date              2020-11-30 
_audit_creation_method            'lammps2cif' 
_symmetry_space_group_name_H-M    'P1' 
_symmetry_Int_Tables_number       1 
_symmetry_cell_setting            triclinic 
loop_ 
_symmetry_equiv_pos_as_xyz 
  x,y,z 
_cell_length_a                    55.53792075 
_cell_length_b                    55.238729016356864 
_cell_length_c                    33.23165245742418 
_cell_angle_alpha                 90.03468041163536 
_cell_angle_beta                  90.0263696109653 
_cell_angle_gamma                 120.34187774159203 
loop_ 
_atom_site_label 
_atom_site_type_symbol 
_atom_site_fract_x 
_atom_site_fract_y 
_atom_site_fract_z 
_atom_site_charge 
O1          O  0.58385986  0.38674479  0.43714446    -0.88900
C2          C  0.61223072  0.43881029  0.53344893     0.87100
Mg3        Mg  0.59073457  0.40114419  0.37683740     1.58100
O4          O  0.54035060  0.40827926  0.51938403    -0.88600
O5          O  0.54772441  0.36130620  0.47602663    -0.76000
C6          C  0.54903555  0.49390138  0.37042413     0.92200
O7          O  0.63766582  0.44812125  0.44550556    -0.75800
O8          O  0.56534226  0.48689712  0.35449622    -0.83300
Mg9        Mg  0.61919020  0.40506893  0.47634741     1.58000
C10         C  0.50413298  0.45803705  0.52787783     0.92100
O11         O  0.60448514  0.36290879  0.50616460    -0.81600
H12         H  0.50200294  0.37460987  0.51949662    -0.06900
C13         C  0.58613333  0.48696843  0.47020268     0.87000
O14         O  0.54581233  0.39432694  0.37563951    -0.76100
O15         O  0.59724683  0.41582286  0.51728480    -0.88800
O16         O  0.51945863  0.45127741  0.54775302    -0.81600
C17         C  0.56121663  0.41861403  0.62229685     0.92200
C18         C  0.58956601  0.34784275  0.53520264     0.92100
Mg19       Mg  0.52694795  0.44565695  0.44380049     1.58000
O20         O  0.53878625  0.48528668  0.40546660    -0.81600
O21         O  0.50779601  0.40429218  0.47855679    -0.75800
O22         O  0.56433175  0.40073912  0.60197910    -0.81600
O23         O  0.64447437  0.39544586  0.43501380    -0.83400
O24         O  0.57723592  0.44246025  0.31599572    -0.81700
C25         C  0.51613770  0.39501469  0.50689909     0.86500
O26         O  0.54778394  0.43161595  0.40247296    -0.88800
O27         O  0.56475161  0.46480753  0.47916834    -0.88900
O28         O  0.59762972  0.49048639  0.43594937    -0.76000
Mg29       Mg  0.55737159  0.38303182  0.53752066     1.58000
O30         O  0.55651748  0.43640022  0.60515343    -0.83300
H31         H  0.55151875  0.35014863  0.41929302    -0.07100
O32         O  0.60726883  0.44307469  0.39924833    -0.88600
H33         H  0.64360354  0.47877584  0.40626322    -0.06900
H34         H  0.51220751  0.39943420  0.38146856    -0.07100
C35         C  0.63010583  0.45744181  0.41605798     0.86500
C36         C  0.56101776  0.36534744  0.44326089     0.87100
C37         C  0.53430810  0.40827708  0.38635493     0.87100
H38         H  0.59565486  0.50351663  0.49238277    -0.07100
O39         O  0.60337841  0.45540930  0.54118248    -0.76100
Mg40       Mg  0.58648534  0.46427016  0.37774135     1.58000
H41         H  0.63387368  0.44555547  0.53918998    -0.07100
C42         C  0.64989832  0.39973729  0.39787442     0.92100
O43         O  0.59542269  0.41477459  0.31160868    -0.83300
C44         C  0.58410668  0.42743929  0.29542328     0.92200
O45         O  0.57389484  0.35421683  0.55495054    -0.83300
Mg46       Mg  0.56028841  0.45087140  0.54061875     1.58200
O47         O  0.63494347  0.40506473  0.37420526    -0.81600
O48         O  0.50547102  0.45997360  0.48950262    -0.83300
O49         O  0.58281900  0.38472312  0.93773616    -0.88900
C50         C  0.61445178  0.43971119  0.03049446     0.87100
Mg51       Mg  0.58765523  0.39735139  0.87667211     1.58100
O52         O  0.54209597  0.40715447  0.02278377    -0.88600
O53         O  0.54894702  0.35974522  0.98037987    -0.76000
C54         C  0.54512054  0.48963540  0.87258623     0.92200
O55         O  0.63697697  0.44654445  0.94114379    -0.75800
O56         O  0.56115794  0.48265012  0.85547142    -0.83300
Mg57       Mg  0.61953167  0.40435018  0.97395106     1.58000
C58         C  0.50370843  0.45458417  0.03128876     0.92100
O59         O  0.60591437  0.36288057  0.00416820    -0.81600
H60         H  0.50441137  0.37259034  0.02467252    -0.06900
C61         C  0.58468687  0.48448822  0.96910022     0.87000
O62         O  0.54265611  0.39003463  0.87778256    -0.76100
O63         O  0.59916764  0.41626824  0.01577237    -0.88800
O64         O  0.52065195  0.44960456  0.05020310    -0.81600
C65         C  0.56816923  0.42192309  0.12325357     0.92200
C66         C  0.59340597  0.34918114  0.03539637     0.92100
Mg67       Mg  0.52494256  0.44154203  0.94644877     1.58000
O68         O  0.53472917  0.48026894  0.90728342    -0.81600
O69         O  0.50823018  0.40102194  0.98282478    -0.75800
O70         O  0.57142978  0.40414257  0.10306107    -0.81600
O71         O  0.64314672  0.39349743  0.93222238    -0.83400
O72         O  0.57238192  0.43741481  0.81622177    -0.81700
C73         C  0.51770789  0.39291617  0.01122907     0.86500
O74         O  0.54520866  0.42769608  0.90411586    -0.88800
O75         O  0.56377380  0.46234970  0.97948439    -0.88900
O76         O  0.59542060  0.48741914  0.93439116    -0.76000
Mg77       Mg  0.56110727  0.38361700  0.04049745     1.58000
O78         O  0.56078094  0.43806385  0.10699720    -0.83300
H79         H  0.55018555  0.34731343  0.92334670    -0.07100
O80         O  0.60465665  0.43978980  0.89730346    -0.88600
H81         H  0.64112253  0.47577276  0.90044391    -0.06900
H82         H  0.50918557  0.39515292  0.88512918    -0.07100
C83         C  0.62814795  0.45478545  0.91192888     0.86500
C84         C  0.56056180  0.36322572  0.94620843     0.87100
C85         C  0.53138785  0.40411864  0.88883143     0.87100
H86         H  0.59456579  0.50150899  0.99051045    -0.07100
O87         O  0.60538542  0.45602257  0.03906152    -0.76100
Mg88       Mg  0.58299267  0.46028387  0.87714395     1.58000
H89         H  0.63638703  0.44699999  0.03441099    -0.07100
C90         C  0.64768768  0.39721142  0.89486671     0.92100
O91         O  0.59003323  0.40938648  0.81113592    -0.83300
C92         C  0.57847366  0.42189681  0.79528705     0.92200
O93         O  0.57971470  0.35646295  0.05816760    -0.83300
Mg94       Mg  0.56179226  0.45031910  0.04143214     1.58200
O95         O  0.63197764  0.40162302  0.87147560    -0.81600
O96         O  0.50357092  0.45533166  0.99284916    -0.83300
O97         O  0.41043780  0.60716722  0.18996031    -0.88900
C98         C  0.38101335  0.55299973  0.28367530     0.87100
Mg99       Mg  0.40489680  0.59417751  0.12902939     1.58100
O100        O  0.45330379  0.58587012  0.27323936    -0.88600
O101        O  0.44542534  0.63244175  0.23090115    -0.76000
C102        C  0.44990812  0.50398268  0.12111448     0.92200
O103        O  0.35712646  0.54511111  0.19494576    -0.75800
O104        O  0.43305164  0.51030864  0.10527037    -0.83300
Mg105      Mg  0.37433936  0.58746881  0.22750099     1.58000
C106        C  0.49273582  0.54007141  0.28044185     0.92100
O107        O  0.38802261  0.62901779  0.25796816    -0.81600
H108        H  0.49087855  0.62059582  0.27467891    -0.06900
C109        C  0.41078456  0.50825345  0.22029650     0.87000
O110        O  0.45018811  0.60223728  0.12867946    -0.76100
O111        O  0.39588429  0.57637734  0.26858117    -0.88800
O112        O  0.47559145  0.54454771  0.29970061    -0.81600
C113        C  0.42923659  0.57235385  0.37522190     0.92200
C114        C  0.40207458  0.64358190  0.28789371     0.92100
Mg115      Mg  0.46994756  0.55174834  0.19604089     1.58000
O116        O  0.46041917  0.51315716  0.15596799    -0.81600
O117        O  0.48677678  0.59230205  0.23235453    -0.75800
O118        O  0.42606547  0.59015980  0.35489889    -0.81600
O119        O  0.34957444  0.59758424  0.18626381    -0.83400
O120        O  0.42023010  0.55454140  0.06770521    -0.81700
C121        C  0.47754606  0.60024702  0.26125467     0.86500
O122        O  0.44871147  0.56498000  0.15454524    -0.88800
O123        O  0.43155300  0.53065252  0.23029644    -0.88900
O124        O  0.39962549  0.50495411  0.18580940    -0.76000
Mg125      Mg  0.43468018  0.60939937  0.29140746     1.58000
O126        O  0.43577152  0.55575198  0.35828202    -0.83300
H127        H  0.44268377  0.64443437  0.17424687    -0.07100
O128        O  0.38881533  0.55190010  0.14991101    -0.88600
H129        H  0.35277837  0.51559993  0.15454641    -0.06900
H130        H  0.48418995  0.59783023  0.13471097    -0.07100
C131        C  0.36568225  0.53677096  0.16547892     0.86500
C132        C  0.43288162  0.62873099  0.19747608     0.87100
C133        C  0.46198960  0.58853984  0.13911065     0.87100
H134        H  0.40144132  0.49129085  0.24182375    -0.07100
O135        O  0.39036588  0.53683428  0.29151581    -0.76100
Mg136      Mg  0.41078004  0.53190097  0.12850391     1.58000
H137        H  0.35913236  0.54559003  0.28840977    -0.07100
C138        C  0.34458711  0.59348957  0.14902035     0.92100
O139        O  0.40183254  0.58203365  0.06327201    -0.83300
C140        C  0.41374781  0.56989090  0.04724812     0.92200
O141        O  0.41680419  0.63669010  0.30892910    -0.83300
Mg142      Mg  0.43411457  0.54301809  0.29244232     1.58200
O143        O  0.36032942  0.58931075  0.12535175    -0.81600
O144        O  0.49237594  0.53884651  0.24198832    -0.83300
O145        O  0.41356789  0.61044319  0.69113969    -0.88900
C146        C  0.38419140  0.55744758  0.78569524     0.87100
Mg147      Mg  0.40665088  0.59648526  0.63064523     1.58100
O148        O  0.45611559  0.58823339  0.77392853    -0.88600
O149        O  0.44944773  0.63548767  0.73085567    -0.76000
C150        C  0.45050193  0.50578595  0.62199472     0.92200
O151        O  0.35907830  0.54933499  0.69803504    -0.75800
O152        O  0.43344944  0.51208599  0.60666832    -0.83300
Mg153      Mg  0.37795027  0.59232732  0.72955653     1.58000
C154        C  0.49299560  0.53935458  0.78042456     0.92100
O155        O  0.39379098  0.63466753  0.75915900    -0.81600
H156        H  0.49418231  0.62228920  0.77465267    -0.06900
C157        C  0.41156506  0.51020097  0.72273125     0.87000
O158        O  0.45157392  0.60360929  0.62895694    -0.76100
O159        O  0.39927987  0.58065365  0.77018936    -0.88800
O160        O  0.47745897  0.54548894  0.80115969    -0.81600
C161        C  0.43232900  0.57604399  0.87566571     0.92200
C162        C  0.40856885  0.64942226  0.78851731     0.92100
Mg163      Mg  0.47047907  0.55250865  0.69687386     1.58000
O164        O  0.46005957  0.51335009  0.65761686    -0.81600
O165        O  0.48882539  0.59343045  0.73250134    -0.75800
O166        O  0.42971885  0.59398341  0.85494153    -0.81600
O167        O  0.35312513  0.60295371  0.68851394    -0.83400
O168        O  0.41934059  0.55501723  0.56905213    -0.81700
C169        C  0.48029727  0.60197588  0.76152434     0.86500
O170        O  0.44945826  0.56630913  0.65571161    -0.88800
O171        O  0.43264951  0.53247367  0.73221655    -0.88900
O172        O  0.40021703  0.50682970  0.68838272    -0.76000
Mg173      Mg  0.43880933  0.61305866  0.79185565     1.58000
O174        O  0.43890494  0.55910250  0.85987294    -0.83300
H175        H  0.44623664  0.64704973  0.67411841    -0.07100
O176        O  0.38991725  0.55428299  0.65259290    -0.88600
H177        H  0.35333257  0.51871174  0.65873334    -0.06900
H178        H  0.48506663  0.59830755  0.63458380    -0.07100
C179        C  0.36687834  0.53997120  0.66887519     0.86500
C180        C  0.43645683  0.63171106  0.69780303     0.87100
C181        C  0.46299132  0.58958058  0.63954384     0.87100
H182        H  0.40217630  0.49340960  0.74452502    -0.07100
O183        O  0.39313797  0.54094573  0.79371391    -0.76100
Mg184      Mg  0.41103346  0.53341304  0.63065605     1.58000
H185        H  0.36242744  0.55048467  0.79077661    -0.07100
C186        C  0.34729211  0.59763893  0.65153571     0.92100
O187        O  0.40208611  0.58344098  0.56499768    -0.83300
C188        C  0.41266146  0.57018952  0.54845993     0.92200
O189        O  0.42280755  0.64200575  0.80971720    -0.83300
Mg190      Mg  0.43634515  0.54557174  0.79422258     1.58200
O191        O  0.36241592  0.59223120  0.62848286    -0.81600
O192        O  0.49194725  0.53861273  0.74209708    -0.83300
O193        O  0.19703382  0.61445741  0.05259702    -0.88900
C194        C  0.17289117  0.56431254  0.95456146     0.87100
Mg195      Mg  0.18958164  0.59946686  0.11250745     1.58100
O196        O  0.13307221  0.59580516  0.97148606    -0.88600
O197        O  0.18770711  0.64154310  0.01525850    -0.76000
C198        C  0.05432911  0.50672646  0.11802586     0.92200
O199        O  0.18834440  0.55288625  0.04192060    -0.75800
O200        O  0.07754885  0.51361476  0.13458009    -0.83300
Mg201      Mg  0.21373047  0.59635586  0.01249044     1.58000
C202        C  0.04640146  0.54480647  0.96291377     0.92100
O203        O  0.24162471  0.63887968  0.98464983    -0.81600
H204        H  0.12880324  0.62960190  0.97404535    -0.06900
C205        C  0.09864873  0.51599100  0.01790028     0.87000
O206        O  0.15188416  0.60676217  0.11513162    -0.76100
O207        O  0.18136533  0.58702629  0.97182364    -0.88800
O208        O  0.06946878  0.55611704  0.94397793    -0.81600
C209        C  0.14357979  0.58616522  0.86790359     0.92200
C210        C  0.24276826  0.65553985  0.95743617     0.92100
Mg211      Mg  0.08122977  0.55657841  0.04666242     1.58000
O212        O  0.05311737  0.51636311  0.08367289    -0.81600
O213        O  0.10414801  0.59866026  0.01308386    -0.75800
O214        O  0.16490875  0.60321759  0.88852273    -0.81600
O215        O  0.24854156  0.60474646  0.05330887    -0.83400
O216        O  0.13497014  0.55725513  0.17418172    -0.81700
C217        C  0.12223870  0.60881004  0.98526874     0.86500
O218        O  0.11596350  0.56989833  0.08829562    -0.88800
O219        O  0.10009225  0.53857024  0.01007831    -0.88900
O220        O  0.10608222  0.51147342  0.05196372    -0.76000
Mg221      Mg  0.17552241  0.62085952  0.95313117     1.58000
O222        O  0.12014577  0.56933244  0.88408429    -0.83300
H223        H  0.20250779  0.65109918  0.07231603    -0.07100
O224        O  0.16360697  0.55772880  0.08942379    -0.88600
H225        H  0.16332211  0.52178876  0.08048551    -0.06900
H226        H  0.11325060  0.60212127  0.11049232    -0.07100
C227        C  0.17157677  0.54335572  0.07153236     0.86500
C228        C  0.19646445  0.63638860  0.04764018     0.87100
C229        C  0.12626533  0.59310486  0.10486583     0.87100
H230        H  0.09137672  0.49989951  0.99498410    -0.07100
O231        O  0.14728608  0.54820316  0.94655036    -0.76100
Mg232      Mg  0.12159676  0.53654376  0.11130411     1.58000
H233        H  0.18748350  0.55736373  0.94799066    -0.07100
C234        C  0.24970653  0.60022779  0.09030233     0.92100
O235        O  0.18090807  0.58537697  0.17739919    -0.83300
C236        C  0.15722726  0.57214515  0.19444180     0.92200
O237        O  0.22147729  0.65038901  0.93640452    -0.83300
Mg238      Mg  0.10944078  0.55387799  0.94885157     1.58200
O239        O  0.22955807  0.59520825  0.11407141    -0.81600
O240        O  0.04533789  0.54150167  0.00101124    -0.83300
O241        O  0.19707015  0.61346617  0.55435546    -0.88900
C242        C  0.17352151  0.56127963  0.45838862     0.87100
Mg243      Mg  0.18884773  0.60007939  0.61517789     1.58100
O244        O  0.13525562  0.59521400  0.46768273    -0.88600
O245        O  0.18973042  0.64025549  0.51310094    -0.76000
C246        C  0.05299425  0.51407286  0.61891866     0.92200
O247        O  0.18611717  0.55089414  0.54796362    -0.75800
O248        O  0.07537391  0.51951021  0.63678102    -0.83300
Mg249      Mg  0.21332796  0.59361294  0.51714444     1.58000
C250        C  0.04844743  0.54737743  0.45944972     0.92100
O251        O  0.24236974  0.63549586  0.48932500    -0.81600
H252        H  0.13308611  0.63022991  0.46725135    -0.06900
C253        C  0.09753487  0.51674934  0.52105691     0.87000
O254        O  0.15273185  0.60975597  0.61495876    -0.76100
O255        O  0.18216895  0.58442377  0.47428618    -0.88800
O256        O  0.07027584  0.55338567  0.43915443    -0.81600
C257        C  0.14641848  0.58207883  0.36662523     0.92200
C258        C  0.24527392  0.65185814  0.46061604     0.92100
Mg259      Mg  0.08331854  0.56080861  0.54438607     1.58000
O260        O  0.05303155  0.52224366  0.58295778    -0.81600
O261        O  0.10815240  0.60151786  0.50865245    -0.75800
O262        O  0.16783255  0.59955675  0.38693758    -0.81600
O263        O  0.24721549  0.60183582  0.55969038    -0.83400
O264        O  0.13276148  0.56166287  0.67619312    -0.81700
C265        C  0.12562913  0.60966340  0.48006887     0.86500
O266        O  0.11688815  0.57334236  0.58744861    -0.88800
O267        O  0.10048956  0.53961206  0.51076753    -0.88900
O268        O  0.10381354  0.51277085  0.55630804    -0.76000
Mg269      Mg  0.17832326  0.61850512  0.45137608     1.58000
O270        O  0.12305060  0.56548155  0.38325576    -0.83300
H271        H  0.20290544  0.65089211  0.57073465    -0.07100
O272        O  0.16180876  0.55801419  0.59380663    -0.88600
H273        H  0.15972918  0.52102286  0.58706730    -0.06900
H274        H  0.11483722  0.60643614  0.60739918    -0.07100
C275        C  0.16898535  0.54254381  0.57722434     0.86500
C276        C  0.19719899  0.63553405  0.54701516     0.87100
C277        C  0.12739353  0.59674078  0.60341114     0.87100
H278        H  0.08985627  0.49986743  0.49935550    -0.07100
O279        O  0.14798527  0.54546933  0.44988650    -0.76100
Mg280      Mg  0.11959219  0.53934356  0.61441202     1.58000
H281        H  0.18782153  0.55370882  0.45361362    -0.07100
C282        C  0.24762608  0.59761001  0.59701847     0.92100
O283        O  0.17897134  0.58747154  0.68050104    -0.83300
C284        C  0.15498409  0.57574177  0.69679360     0.92200
O285        O  0.22520956  0.64637645  0.43654797    -0.83300
Mg286      Mg  0.11082714  0.55221983  0.44840143     1.58200
O287        O  0.22745903  0.59361752  0.61995277    -0.81600
O288        O  0.04864215  0.54741694  0.49780713    -0.83300
O289        O  0.80285662  0.38957998  0.30496534    -0.88900
C290        C  0.82593158  0.43781241  0.20523353     0.87100
Mg291      Mg  0.81130635  0.40557251  0.36428821     1.58100
O292        O  0.86633662  0.40676710  0.22203683    -0.88600
O293        O  0.81220469  0.36203554  0.26865825    -0.76000
C294        C  0.94673305  0.49754696  0.36563153     0.92200
O295        O  0.81214586  0.45130680  0.29225819    -0.75800
O296        O  0.92366421  0.49094434  0.38236736    -0.83300
Mg297      Mg  0.78608360  0.40742633  0.26437232     1.58000
C298        C  0.95277434  0.45622953  0.21198791     0.92100
O299        O  0.75759174  0.36462155  0.23788738    -0.81600
H300        H  0.87016307  0.37275958  0.22586617    -0.06900
C301        C  0.90120378  0.48721092  0.26622776     0.87000
O302        O  0.84885434  0.39810546  0.36660749    -0.76100
O303        O  0.81788463  0.41554702  0.22343342    -0.88800
O304        O  0.93040598  0.44807417  0.19178409    -0.81600
C305        C  0.85330512  0.41463761  0.11882999     0.92200
C306        C  0.75623313  0.34750973  0.21125410     0.92100
Mg307      Mg  0.91843948  0.44664656  0.29616126     1.58000
O308        O  0.94778238  0.48796166  0.33109755    -0.81600
O309        O  0.89486719  0.40399257  0.26452303    -0.75800
O310        O  0.83302837  0.39746646  0.14084362    -0.81600
O311        O  0.75187332  0.40046594  0.30561433    -0.83400
O312        O  0.86690090  0.44889771  0.42441370    -0.81700
C313        C  0.87697385  0.39376156  0.23646233     0.86500
O314        O  0.88438345  0.43450438  0.33840804    -0.88800
O315        O  0.89971549  0.46455279  0.25880089    -0.88900
O316        O  0.89416249  0.49218510  0.30029425    -0.76000
Mg317      Mg  0.82350734  0.38139362  0.20577891     1.58000
O318        O  0.87711676  0.43216394  0.13361850    -0.83300
H319        H  0.79775141  0.35337188  0.32589289    -0.07100
O320        O  0.83709487  0.44698167  0.33995460    -0.88600
H321        H  0.83766349  0.48293186  0.32983385    -0.06900
H322        H  0.88742669  0.40268681  0.36143006    -0.07100
C323        C  0.82914355  0.46119258  0.32159783     0.86500
C324        C  0.80352258  0.36763578  0.30073604     0.87100
C325        C  0.87432801  0.41160208  0.35573411     0.87100
H326        H  0.90816708  0.50299007  0.24292402    -0.07100
O327        O  0.85136748  0.45385008  0.19642658    -0.76100
Mg328      Mg  0.87939485  0.46829535  0.36058143     1.58000
H329        H  0.81114283  0.44449824  0.19860493    -0.07100
C330        C  0.75144512  0.40545685  0.34268943     0.92100
O331        O  0.82105400  0.42071299  0.42848938    -0.83300
C332        C  0.84483969  0.43433657  0.44517274     0.92200
O333        O  0.77743402  0.35184707  0.19073036    -0.83300
Mg334      Mg  0.88940583  0.44858423  0.19794475     1.58200
O335        O  0.77143550  0.40992285  0.36641627    -0.81600
O336        O  0.95319622  0.45906368  0.25008332    -0.83300
O337        O  0.80126703  0.38629777  0.80212994    -0.88900
C338        C  0.82377927  0.44124215  0.70983609     0.87100
Mg339      Mg  0.80783950  0.39779683  0.86376664     1.58100
O340        O  0.86594473  0.41143149  0.71868261    -0.88600
O341        O  0.81204890  0.36252098  0.75998430    -0.76000
C342        C  0.94209866  0.49216175  0.87364471     0.92200
O343        O  0.80791094  0.44735133  0.79974999    -0.75800
O344        O  0.91897894  0.48407261  0.89114638    -0.83300
Mg345      Mg  0.78384246  0.40545908  0.76563652     1.58000
C346        C  0.95168718  0.46317276  0.71339810     0.92100
O347        O  0.75746160  0.36438619  0.73415109    -0.81600
H348        H  0.87095316  0.37811185  0.71558381    -0.06900
C349        C  0.89791026  0.48781887  0.77578275     0.87000
O350        O  0.84616166  0.39158004  0.86326447    -0.76100
O351        O  0.81637065  0.41793263  0.72425593    -0.88800
O352        O  0.92958763  0.45681268  0.69373817    -0.81600
C353        C  0.85561232  0.42597537  0.61786372     0.92200
C354        C  0.75683052  0.34941638  0.70484392     0.92100
Mg355      Mg  0.91589977  0.44606740  0.79709782     1.58000
O356        O  0.94303375  0.48445831  0.83768774    -0.81600
O357        O  0.89404435  0.40615308  0.75896602    -0.75800
O358        O  0.83450926  0.40693085  0.63693823    -0.81600
O359        O  0.74855334  0.39354523  0.80679076    -0.83400
O360        O  0.86180401  0.43793929  0.92657757    -0.81700
C361        C  0.87691554  0.39794594  0.72989862     0.86500
O362        O  0.88108901  0.43021645  0.83866054    -0.88800
O363        O  0.89681271  0.46594201  0.76454568    -0.88900
O364        O  0.89021966  0.49019067  0.81087080    -0.76000
Mg365      Mg  0.82372368  0.38625098  0.70000106     1.58000
O366        O  0.87809313  0.44346257  0.63575878    -0.83300
H367        H  0.79745080  0.34937288  0.81640623    -0.07100
O368        O  0.83295628  0.44091020  0.84505269    -0.88600
H369        H  0.83197060  0.47652975  0.84140432    -0.06900
H370        H  0.88538605  0.39803561  0.85670893    -0.07100
C371        C  0.82442250  0.45564203  0.82976397     0.86500
C372        C  0.80291565  0.36532638  0.79370725     0.87100
C373        C  0.87167358  0.40646403  0.85305047     0.87100
H374        H  0.90505309  0.50515683  0.75497791    -0.07100
O375        O  0.84917804  0.45871357  0.70285605    -0.76100
Mg376      Mg  0.87493824  0.46183184  0.86696568     1.58000
H377        H  0.80841003  0.44744903  0.70517652    -0.07100
C378        C  0.74717633  0.39661014  0.84426782     0.92100
O379        O  0.81623315  0.40818437  0.93046695    -0.83300
C380        C  0.84028858  0.42124677  0.94676358     0.92200
O381        O  0.77799839  0.35632106  0.68251466    -0.83300
Mg382      Mg  0.88806381  0.45496181  0.70183063     1.58200
O383        O  0.76719866  0.40087489  0.86780688    -0.81600
O384        O  0.95218640  0.46267474  0.75178937    -0.83300
O385        O  0.61315220  0.19756759  0.11157755    -0.88900
C386        C  0.56083498  0.17382898  0.20705159     0.87100
Mg387      Mg  0.59967627  0.19042613  0.05059903     1.58100
O388        O  0.59259703  0.13369015  0.19529098    -0.88600
O389        O  0.63883554  0.18825657  0.15198758    -0.76000
C390        C  0.50894424  0.05477534  0.04560240     0.92200
O391        O  0.55187721  0.18931861  0.11846535    -0.75800
O392        O  0.51591137  0.07773701  0.02803231    -0.83300
Mg393      Mg  0.59446588  0.21440951  0.14996304     1.58000
C394        C  0.54472078  0.04721869  0.20213440     0.92100
O395        O  0.63617030  0.24202281  0.17909987    -0.81600
H396        H  0.62676040  0.13031324  0.19536258    -0.06900
C397        C  0.51488060  0.09916371  0.14366658     0.87000
O398        O  0.60726956  0.15278432  0.04954446    -0.76100
O399        O  0.58380968  0.18203059  0.19129376    -0.88800
O400        O  0.55100905  0.06943100  0.22191951    -0.81600
C401        C  0.57973116  0.14420420  0.29703868     0.92200
C402        C  0.65187967  0.24332864  0.20771154     0.92100
Mg403      Mg  0.55691221  0.08270986  0.11850284     1.58000
O404        O  0.51752588  0.05433188  0.08109476    -0.81600
O405        O  0.59784283  0.10606360  0.15371688    -0.75800
O406        O  0.59759786  0.16554437  0.27705790    -0.81600
O407        O  0.60447648  0.24918750  0.10883500    -0.83400
O408        O  0.55927818  0.13506199  0.98954307    -0.81700
C409        C  0.60640914  0.12346368  0.18257835     0.86500
O410        O  0.57035998  0.11735548  0.07679409    -0.88800
O411        O  0.53719279  0.10079690  0.15315261    -0.88900
O412        O  0.51119349  0.10659999  0.10907493    -0.76000
Mg413      Mg  0.61680213  0.17627460  0.21333657     1.58000
O414        O  0.56302065  0.12091020  0.28015931    -0.83300
H415        H  0.64992289  0.20244572  0.09487040    -0.07100
O416        O  0.55768430  0.16440440  0.07207503    -0.88600
H417        H  0.52184643  0.16438283  0.07841948    -0.06900
H418        H  0.60227219  0.11389704  0.05588697    -0.07100
C419        C  0.54305914  0.17252619  0.08868732     0.86500
C420        C  0.63465089  0.19673334  0.11854049     0.87100
C421        C  0.59347963  0.12722628  0.06056032     0.87100
H422        H  0.49828638  0.09179101  0.16566146    -0.07100
O423        O  0.54445260  0.14817617  0.21494761    -0.76100
Mg424      Mg  0.53739972  0.12205659  0.05100611     1.58000
H425        H  0.55394479  0.18868534  0.21228664    -0.07100
C426        C  0.60002821  0.25061090  0.07184761     0.92100
O427        O  0.58699270  0.18122447  0.98475149    -0.83300
C428        C  0.57452733  0.15692288  0.96876862     0.92200
O429        O  0.64562296  0.22236553  0.23038340    -0.83300
Mg430      Mg  0.55000905  0.11009149  0.21493989     1.58200
O431        O  0.59506079  0.23056297  0.04767583    -0.81600
O432        O  0.54308125  0.04670609  0.16383764    -0.83300
O433        O  0.61190066  0.19683566  0.60978073    -0.88900
C434        C  0.56229208  0.17412266  0.70784077     0.87100
Mg435      Mg  0.59658687  0.18955810  0.54967998     1.58100
O436        O  0.59381236  0.13402282  0.69405736    -0.88600
O437        O  0.63876188  0.18804938  0.64853277    -0.76000
C438        C  0.50692382  0.05357054  0.54511404     0.92200
O439        O  0.55100287  0.18877644  0.62043749    -0.75800
O440        O  0.51271669  0.07659551  0.52868193    -0.83300
Mg441      Mg  0.59453105  0.21425682  0.64944487     1.58000
C442        C  0.54672268  0.04792905  0.70108466     0.92100
O443        O  0.63698723  0.24194718  0.67619959    -0.81600
H444        H  0.62804291  0.13086464  0.69105229    -0.06900
C445        C  0.51461673  0.09838757  0.64546464     0.87000
O446        O  0.60459542  0.15224768  0.54631063    -0.76100
O447        O  0.58488105  0.18222182  0.69090603    -0.88800
O448        O  0.55292298  0.06976451  0.72173402    -0.81600
C449        C  0.58281070  0.14578448  0.79652005     0.92200
C450        C  0.65351354  0.24395963  0.70403865     0.92100
Mg451      Mg  0.55651996  0.08264353  0.61701392     1.58000
O452        O  0.51669934  0.05307253  0.57979803    -0.81600
O453        O  0.59808563  0.10670344  0.65060046    -0.75800
O454        O  0.60041320  0.16674424  0.77568147    -0.81600
O455        O  0.60361230  0.24905096  0.60843761    -0.83400
O456        O  0.55478852  0.13438813  0.48902673    -0.81700
C457        C  0.60732804  0.12394607  0.67965854     0.86500
O458        O  0.56847063  0.11677851  0.57493685    -0.88800
O459        O  0.53732985  0.10052195  0.65369421    -0.88900
O460        O  0.50990838  0.10537794  0.61118356    -0.76000
Mg461      Mg  0.61841361  0.17683444  0.71117577     1.58000
O462        O  0.56613117  0.12200299  0.78064224    -0.83300
H463        H  0.64804285  0.20123932  0.59069680    -0.07100
O464        O  0.55528252  0.16331471  0.57328692    -0.88600
H465        H  0.51961489  0.16318629  0.58256684    -0.06900
H466        H  0.59977813  0.11335513  0.55139304    -0.07100
C467        C  0.54117108  0.17152477  0.59123472     0.86500
C468        C  0.63353570  0.19596597  0.61533500     0.87100
C469        C  0.59111567  0.12667065  0.55729527     0.87100
H470        H  0.49852649  0.09088944  0.66827002    -0.07100
O471        O  0.54607400  0.14850948  0.71620405    -0.76100
Mg472      Mg  0.53457717  0.12103172  0.55180169     1.58000
H473        H  0.55555105  0.18902533  0.71373637    -0.07100
C474        C  0.59641220  0.24911716  0.57237940     0.92100
O475        O  0.58215306  0.18059323  0.48500244    -0.83300
C476        C  0.56923633  0.15659898  0.46838396     0.92200
O477        O  0.64775354  0.22330860  0.72712566    -0.83300
Mg478      Mg  0.55164331  0.11041213  0.71544586     1.58200
O479        O  0.59062754  0.22876172  0.54844216    -0.81600
O480        O  0.54434964  0.04745181  0.66281432    -0.83300
O481        O  0.39215866  0.80131138  0.35991242    -0.88900
C482        C  0.44580528  0.82407165  0.45486861     0.87100
Mg483      Mg  0.40603520  0.80797443  0.29911638     1.58100
O484        O  0.41297420  0.86383153  0.44556992    -0.88600
O485        O  0.36636441  0.80989752  0.40136752    -0.76000
C486        C  0.49672383  0.94440397  0.29514517     0.92200
O487        O  0.45246382  0.80684287  0.36498263    -0.75800
O488        O  0.49075964  0.92153154  0.27759968    -0.83300
Mg489      Mg  0.40969188  0.78288572  0.39685147     1.58000
C490        C  0.46077319  0.94964481  0.45406493     0.92100
O491        O  0.36772815  0.75675127  0.42597191    -0.81600
H492        H  0.37872589  0.86701712  0.44515127    -0.06900
C493        C  0.49096499  0.89938181  0.39236278     0.87000
O494        O  0.39877206  0.84582957  0.29708423    -0.76100
O495        O  0.42266777  0.81696808  0.43848344    -0.88800
O496        O  0.45490589  0.92716350  0.47234200    -0.81600
C497        C  0.42665732  0.85299755  0.54625549     0.92200
C498        C  0.35230957  0.75478628  0.45533281     0.92100
Mg499      Mg  0.44829376  0.91536553  0.36829139     1.58000
O500        O  0.48676378  0.94448974  0.32968779    -0.81600
O501        O  0.40763976  0.89124229  0.40364595    -0.75800
O502        O  0.40803602  0.83195403  0.52660673    -0.81600
O503        O  0.39672082  0.74772206  0.35639296    -0.83400
O504        O  0.44759270  0.86281385  0.23710572    -0.81700
C505        C  0.39914378  0.87396615  0.43259924     0.86500
O506        O  0.43541577  0.88120763  0.32510651    -0.88800
O507        O  0.46841202  0.89709803  0.40194142    -0.88900
O508        O  0.49478973  0.89211612  0.35777078    -0.76000
Mg509      Mg  0.38830019  0.82139489  0.46332410     1.58000
O510        O  0.44392302  0.87588719  0.52897102    -0.83300
H511        H  0.35547771  0.79691392  0.34361242    -0.07100
O512        O  0.44798260  0.83388309  0.32090479    -0.88600
H513        H  0.48317397  0.83248714  0.32626675    -0.06900
H514        H  0.40383333  0.88478440  0.30299835    -0.07100
C515        C  0.46203635  0.82472376  0.33654666     0.86500
C516        C  0.37070162  0.80217047  0.36728963     0.87100
C517        C  0.41249632  0.87139342  0.30821385     0.87100
H518        H  0.50762709  0.90708958  0.41432762    -0.07100
O519        O  0.46273695  0.84949288  0.46321148    -0.76100
Mg520      Mg  0.46872638  0.87651208  0.29972943     1.58000
H521        H  0.45188917  0.80856038  0.45955438    -0.07100
C522        C  0.40368639  0.74706822  0.32052047     0.92100
O523        O  0.41928340  0.81652033  0.23412390    -0.83300
C524        C  0.43245630  0.84034867  0.21712597     0.92200
O525        O  0.35950041  0.77495812  0.48006216    -0.83300
Mg526      Mg  0.45620319  0.88712472  0.46388390     1.58200
O527        O  0.41079540  0.76773580  0.29659468    -0.81600
O528        O  0.46191664  0.95098924  0.41559432    -0.83300
O529        O  0.39365907  0.80485048  0.85763265    -0.88900
C530        C  0.44483310  0.82387538  0.95356272     0.87100
Mg531      Mg  0.40995916  0.81219563  0.79804634     1.58100
O532        O  0.41528316  0.86671531  0.94349572    -0.88600
O533        O  0.36805862  0.81502311  0.89704511    -0.76000
C534        C  0.50150393  0.94663895  0.79481767     0.92200
O535        O  0.45224675  0.80721439  0.86566634    -0.75800
O536        O  0.49541109  0.92330057  0.77905579    -0.83300
Mg537      Mg  0.40826665  0.78377790  0.89479909     1.58000
C538        C  0.46518825  0.95181724  0.95440877     0.92100
O539        O  0.36554223  0.75831706  0.92285145    -0.81600
H540        H  0.38225717  0.87196241  0.94207961    -0.06900
C541        C  0.49454460  0.90130053  0.89410200     0.87000
O542        O  0.40382738  0.85082155  0.79509455    -0.76100
O543        O  0.42152806  0.81706234  0.93787821    -0.88800
O544        O  0.45794959  0.92883756  0.97237898    -0.81600
C545        C  0.42645103  0.85254866  0.04464783     0.92200
C546        C  0.34979587  0.75734584  0.95120525     0.92100
Mg547      Mg  0.45387203  0.91924587  0.86810560     1.58000
O548        O  0.49370794  0.94846031  0.83034223    -0.81600
O549        O  0.41251024  0.89594312  0.90203513    -0.75800
O550        O  0.40686573  0.83252890  0.02448375    -0.81600
O551        O  0.39462633  0.74921698  0.85214694    -0.83400
O552        O  0.45318408  0.86702970  0.73861605    -0.81700
C553        C  0.40270839  0.87815108  0.93031345     0.86500
O554        O  0.44045820  0.88521088  0.82480123    -0.88800
O555        O  0.47193755  0.89927072  0.90245693    -0.88900
O556        O  0.49891547  0.89411788  0.85983662    -0.76000
Mg557      Mg  0.38827352  0.82437894  0.96007393     1.58000
O558        O  0.44422052  0.87554484  0.02813365    -0.83300
H559        H  0.35854288  0.80295807  0.83872489    -0.07100
O560        O  0.45097096  0.83675653  0.82286291    -0.88600
H561        H  0.48504717  0.83356793  0.83034571    -0.06900
H562        H  0.41016807  0.89027463  0.80108914    -0.07100
C563        C  0.46367162  0.82625763  0.83895625     0.86500
C564        C  0.37278214  0.80706742  0.86343965     0.87100
C565        C  0.41800159  0.87625092  0.80681046     0.87100
H566        H  0.51071248  0.90869111  0.91681076    -0.07100
O567        O  0.46238054  0.84922550  0.96155219    -0.76100
Mg568      Mg  0.47328492  0.87916821  0.80147269     1.58000
H569        H  0.45053603  0.80805067  0.95790020    -0.07100
C570        C  0.40612603  0.75079793  0.81879289     0.92100
O571        O  0.42526910  0.82090132  0.73418684    -0.83300
C572        C  0.43872163  0.84491799  0.71788236     0.92200
O573        O  0.35652884  0.77827848  0.97429436    -0.83300
Mg574      Mg  0.45794613  0.88808612  0.96352915     1.58200
O575        O  0.41540696  0.77260549  0.79668640    -0.81600
O576        O  0.46756274  0.95391396  0.91609478    -0.83300
C577        C  0.41048713  0.82965152  0.65557933    -0.09700
C578        C  0.43636817  0.84716880  0.67395957     0.06500
C579        C  0.45881793  0.86676287  0.65019936    -0.03500
C580        C  0.45501109  0.86837529  0.60891391    -0.07900
C581        C  0.42908141  0.85080293  0.59037106     0.05600
C582        C  0.40654271  0.83143791  0.61440732    -0.03000
Br583      Br  0.36933572  0.80803104  0.59413749    -0.02700
H584        H  0.39290357  0.81489239  0.67361719     0.09500
H585        H  0.47268538  0.88321461  0.59110383     0.07500
Br586      Br  0.49559133  0.89065078  0.67157389    -0.03100
C587        C  0.40474273  0.82937335  0.10982190    -0.09700
C588        C  0.42861250  0.84894507  0.08860836     0.06500
C589        C  0.45403750  0.86440665  0.11001002    -0.03500
C590        C  0.45462701  0.86131583  0.15169575    -0.07900
C591        C  0.43064092  0.84224766  0.17290086     0.05600
C592        C  0.40557289  0.82578570  0.15141451    -0.03000
Br593      Br  0.37130601  0.79929288  0.17722757    -0.02700
H594        H  0.38511089  0.81705074  0.09412610     0.09500
H595        H  0.47420556  0.87352307  0.16759771     0.07500
Br596      Br  0.48933854  0.88850177  0.08455733    -0.03100
C597        C  0.51706971  0.99649791  0.70780750    -0.09700
C598        C  0.53920009  0.02163713  0.72291152     0.06500
C599        C  0.55051801  0.02142689  0.76101519    -0.03500
C600        C  0.53858293  0.99672031  0.78397855    -0.07900
C601        C  0.51570248  0.97195090  0.76934303     0.05600
C602        C  0.50512727  0.97196552  0.73066606    -0.03000
Br603      Br  0.47199268  0.94020437  0.70938889    -0.02700
H604        H  0.50768805  0.99629272  0.67911200     0.09500
H605        H  0.54701415  0.99691381  0.81345661     0.07500
Br606      Br  0.58249327  0.05398011  0.78291598    -0.03100
C607        C  0.47246725  0.99972740  0.46001269    -0.09700
C608        C  0.46821384  0.97512119  0.47893067     0.06500
C609        C  0.47346902  0.97624123  0.52102478    -0.03500
C610        C  0.48407556  0.00157180  0.54191842    -0.07900
C611        C  0.49021376  0.02660230  0.52252373     0.05600
C612        C  0.48322491  0.02518885  0.48109029    -0.03000
Br613      Br  0.48877408  0.05696065  0.45001181    -0.02700
H614        H  0.46826423  0.99946776  0.42813264     0.09500
H615        H  0.48877818  0.00179805  0.57360761     0.07500
Br616      Br  0.46915689  0.94520740  0.55302612    -0.03100
C617        C  0.57785428  0.12751373  0.86630662    -0.09700
C618        C  0.58146697  0.14920078  0.84052742     0.06500
C619        C  0.58292130  0.17340886  0.85726499    -0.03500
C620        C  0.58106493  0.17563620  0.89898059    -0.07900
C621        C  0.57732315  0.15391512  0.92486660     0.05600
C622        C  0.57594533  0.12967295  0.90804703    -0.03000
Br623      Br  0.57300569  0.09932012  0.94010314    -0.02700
H624        H  0.57685030  0.10886970  0.85392239     0.09500
H625        H  0.58178339  0.19419384  0.91114557     0.07500
Br626      Br  0.58497901  0.20308585  0.82463008    -0.03100
C627        C  0.58211304  0.17275258  0.35614478    -0.09700
C628        C  0.57763680  0.14707813  0.34099084     0.06500
C629        C  0.57021096  0.12466668  0.36794632    -0.03500
C630        C  0.56724808  0.12824924  0.40895098    -0.07900
C631        C  0.57164425  0.15393751  0.42425136     0.05600
C632        C  0.57902787  0.17633566  0.39711188    -0.03000
Br633      Br  0.58359212  0.21185718  0.41281275    -0.02700
H634        H  0.58735760  0.19003167  0.33576844     0.09500
H635        H  0.56198034  0.11086713  0.42911989     0.07500
Br636      Br  0.56553429  0.08921529  0.35138065    -0.03100
C637        C  0.53423549  0.02210213  0.26769353    -0.09700
C638        C  0.53704161  0.02120144  0.22565477     0.06500
C639        C  0.52994404  0.99511777  0.20793446    -0.03500
C640        C  0.51861107  0.97082108  0.23172703    -0.07900
C641        C  0.51378096  0.97149387  0.27326739     0.05600
C642        C  0.52273186  0.99790873  0.29137167    -0.03000
Br643      Br  0.51937597  0.00325515  0.34791409    -0.02700
H644        H  0.53990714  0.04173955  0.28249723     0.09500
H645        H  0.51236252  0.95100548  0.21701136     0.07500
Br646      Br  0.53423174  0.99046166  0.15156328    -0.03100
C647        C  0.48943481  0.00343006  0.04193164    -0.09700
C648        C  0.49260607  0.02772424  0.02351049     0.06500
C649        C  0.48351313  0.02577789  0.98309867    -0.03500
C650        C  0.47363686  0.00059353  0.96170344    -0.07900
C651        C  0.47241460  0.97693378  0.97948854     0.05600
C652        C  0.47991781  0.97849788  0.02064235    -0.03000
Br653      Br  0.48095777  0.94900512  0.04999034    -0.02700
H654        H  0.49600037  0.00409194  0.07281421     0.09500
H655        H  0.46751898  0.99976793  0.93054725     0.07500
Br656      Br  0.48437352  0.05637118  0.95428675    -0.03100
C657        C  0.68090411  0.29532790  0.69258991    -0.09700
C658        C  0.68018722  0.27101524  0.70720853     0.06500
C659        C  0.70552235  0.27284414  0.71897583    -0.03500
C660        C  0.73067795  0.29830546  0.71484765    -0.07900
C661        C  0.73114050  0.32228913  0.69995381     0.05600
C662        C  0.70595686  0.32081659  0.68953824    -0.03000
Br663      Br  0.70483984  0.35319891  0.67135839    -0.02700
H664        H  0.66180305  0.29455529  0.68342027     0.09500
H665        H  0.74992894  0.29967213  0.72473682     0.07500
Br666      Br  0.70760529  0.24163368  0.74018398    -0.03100
C667        C  0.72935995  0.29563379  0.20999485    -0.09700
C668        C  0.72954396  0.32105654  0.20694277     0.06500
C669        C  0.70400687  0.32069581  0.20588869    -0.03500
C670        C  0.67889119  0.29518558  0.20817411    -0.07900
C671        C  0.67864097  0.26975196  0.21210539     0.05600
C672        C  0.70420237  0.27008407  0.21261736    -0.03000
Br673      Br  0.70600240  0.23628532  0.21383960    -0.02700
H674        H  0.74888469  0.29568853  0.21125305     0.09500
H675        H  0.65939739  0.29515587  0.20620803     0.07500
Br676      Br  0.70227977  0.35432497  0.19929934    -0.03100
C677        C  0.82761755  0.42188208  0.55730541    -0.09700
C678        C  0.85344057  0.42817845  0.57367613     0.06500
C679        C  0.87640026  0.43677457  0.54754638    -0.03500
C680        C  0.87313719  0.43901345  0.50615400    -0.07900
C681        C  0.84724814  0.43271552  0.48963556     0.05600
C682        C  0.82431414  0.42418410  0.51599948    -0.03000
Br683      Br  0.78807187  0.41651397  0.49874206    -0.02700
H684        H  0.80986582  0.41559856  0.57696218     0.09500
H685        H  0.89094585  0.44518393  0.48667054     0.07500
Br686      Br  0.91227151  0.44394396  0.56581722    -0.03100
C687        C  0.87166646  0.42165039  0.04904112    -0.09700
C688        C  0.84902998  0.41446096  0.07476961     0.06500
C689        C  0.82313809  0.40823580  0.05781538    -0.03500
C690        C  0.82061686  0.40983638  0.01612061    -0.07900
C691        C  0.84347888  0.41777750  0.99042851     0.05600
C692        C  0.86914531  0.42314066  0.00737376    -0.03000
Br693      Br  0.90149687  0.43149727  0.97586962    -0.02700
H694        H  0.89152838  0.42603673  0.06142515     0.09500
H695        H  0.80081465  0.40573027  0.00388421     0.07500
Br696      Br  0.79091146  0.39970877  0.08969036    -0.03100
C697        C  0.31022593  0.71699120  0.42175607    -0.09700
C698        C  0.32477507  0.72881798  0.45791452     0.06500
C699        C  0.31290339  0.71525108  0.49442666    -0.03500
C700        C  0.28707410  0.69032874  0.49418861    -0.07900
C701        C  0.27243345  0.67844347  0.45802154     0.05600
C702        C  0.28427730  0.69218419  0.42149740    -0.03000
Br703      Br  0.26702193  0.67748855  0.37028875    -0.02700
H704        H  0.31912593  0.72718610  0.39331392     0.09500
H705        H  0.27835352  0.68016591  0.52270580     0.07500
Br706      Br  0.33171989  0.72866772  0.54502216    -0.03100
C707        C  0.02155421  0.47840887  0.66966288    -0.09700
C708        C  0.02641215  0.49955819  0.64162528     0.06500
C709        C  0.00691370  0.50871779  0.63881348    -0.03500
C710        C  0.98275273  0.49597484  0.66206996    -0.07900
C711        C  0.97773932  0.47481220  0.68981483     0.05600
C712        C  0.99747263  0.46612432  0.69386644    -0.03000
Br713      Br  0.99194190  0.43710917  0.73077316    -0.02700
H714        H  0.03660097  0.47155107  0.67292145     0.09500
H715        H  0.96814476  0.50346498  0.65953324     0.07500
Br716      Br  0.01349095  0.54092595  0.60796519    -0.03100
C717        C  0.97138230  0.50927158  0.43086080    -0.09700
C718        C  0.97268117  0.51434883  0.38931374     0.06500
C719        C  0.99879439  0.53285425  0.37191877    -0.03500
C720        C  0.02298301  0.54472487  0.39580868    -0.07900
C721        C  0.02188702  0.53830889  0.43712312     0.05600
C722        C  0.99540970  0.52055577  0.45460395    -0.03000
Br723      Br  0.98991700  0.50757293  0.50928663    -0.02700
H724        H  0.95155317  0.49483985  0.44474269     0.09500
H725        H  0.04288763  0.55844356  0.38162158     0.07500
Br726      Br  0.00263729  0.54301313  0.31609892    -0.03100
C727        C  0.29802963  0.73278099  0.95477897    -0.09700
C728        C  0.32254796  0.73132030  0.95530068     0.06500
C729        C  0.32046679  0.70481796  0.95405834    -0.03500
C730        C  0.29425842  0.68045097  0.95305453    -0.07900
C731        C  0.26969907  0.68180738  0.95219758     0.05600
C732        C  0.27172462  0.70832266  0.95297739    -0.03000
Br733      Br  0.23935401  0.71233084  0.95411638    -0.02700
H734        H  0.29935787  0.75303724  0.95487904     0.09500
H735        H  0.29303036  0.66023902  0.95337599     0.07500
Br736      Br  0.35275667  0.70064007  0.95524868    -0.03100
C737        C  0.02982816  0.48992200  0.18351235    -0.09700
C738        C  0.02824465  0.48911919  0.14122939     0.06500
C739        C  0.00168215  0.47407850  0.12305173    -0.03500
C740        C  0.97765953  0.46187401  0.14700995    -0.07900
C741        C  0.97910324  0.46459524  0.18930424     0.05600
C742        C  0.00585101  0.47817295  0.20753818    -0.03000
Br743      Br  0.01209055  0.48353114  0.26461560    -0.02700
H744        H  0.04996314  0.50125066  0.19824900     0.09500
H745        H  0.95760011  0.45117233  0.13200386     0.07500
Br746      Br  0.99639371  0.46957537  0.06578881    -0.03100
C747        C  0.16899392  0.58229523  0.80949549    -0.09700
C748        C  0.14668269  0.58487508  0.82398586     0.06500
C749        C  0.12731398  0.58472680  0.79646057    -0.03500
C750        C  0.13037339  0.58170485  0.75522117    -0.07900
C751        C  0.15257434  0.57880607  0.74066996     0.05600
C752        C  0.17191667  0.57896546  0.76839594    -0.03000
Br753      Br  0.20119311  0.57210358  0.75270940    -0.02700
H754        H  0.18370900  0.58184212  0.83047272     0.09500
H755        H  0.11549069  0.58194656  0.73437013     0.07500
Br756      Br  0.09731354  0.59012078  0.81339528    -0.03100
C757        C  0.13005841  0.57130333  0.25449835    -0.09700
C758        C  0.15507160  0.57468735  0.23869665     0.06500
C759        C  0.17735071  0.58113545  0.26547442    -0.03500
C760        C  0.17421562  0.58407776  0.30671176    -0.07900
C761        C  0.14910833  0.58039707  0.32243395     0.05600
C762        C  0.12693479  0.57417643  0.29571159    -0.03000
Br763      Br  0.09244994  0.57105662  0.31296722    -0.02700
H764        H  0.11286891  0.56688347  0.23455380     0.09500
H765        H  0.19133813  0.58852835  0.32681695     0.07500
Br766      Br  0.21200743  0.58446670  0.24864264    -0.03100
C767        C  0.99632779  0.53216199  0.95639577    -0.09700
C768        C  0.02026494  0.53397460  0.93910461     0.06500
C769        C  0.01829784  0.52339656  0.89969156    -0.03500
C770        C  0.99316386  0.51173679  0.87868157    -0.07900
C771        C  0.96889245  0.50908377  0.89604247     0.05600
C772        C  0.97080816  0.51987671  0.93548232    -0.03000
Br773      Br  0.93981405  0.51848113  0.96335030    -0.02700
H774        H  0.99734754  0.53997495  0.98663136     0.09500
H775        H  0.99242415  0.50324542  0.84902051     0.07500
Br776      Br  0.04775701  0.52054923  0.87375025    -0.03100
C777        C  0.40547679  0.69024658  0.76402683    -0.09700
C778        C  0.40976597  0.67633753  0.79644672     0.06500
C779        C  0.41529020  0.68869933  0.83494121    -0.03500
C780        C  0.41521093  0.71364635  0.84049856    -0.07900
C781        C  0.40975496  0.72689475  0.80851270     0.05600
C782        C  0.40562072  0.71542751  0.76969788    -0.03000
Br783      Br  0.39832368  0.73208599  0.72415357    -0.02700
H784        H  0.40178603  0.68139425  0.73401564     0.09500
H785        H  0.41878808  0.72245804  0.87055295     0.07500
Br786      Br  0.42112778  0.67201731  0.88195188    -0.03100
C787        C  0.28685785  0.58896541  0.58568182    -0.09700
C788        C  0.27230644  0.59678274  0.61250937     0.06500
C789        C  0.28267731  0.60481950  0.65185342    -0.03500
C790        C  0.30704294  0.60504814  0.66334661    -0.07900
C791        C  0.32183491  0.59742464  0.63644419     0.05600
C792        C  0.31123017  0.58918608  0.59703717    -0.03000
Br793      Br  0.32828067  0.57774034  0.55671788    -0.02700
H794        H  0.27919994  0.58255336  0.55528043     0.09500
H795        H  0.31452963  0.61156246  0.69377099     0.07500
Br796      Br  0.26583730  0.61746859  0.69063472    -0.03100
C797        C  0.41119155  0.70853967  0.34036053    -0.09700
C798        C  0.40463471  0.72167557  0.30939194     0.06500
C799        C  0.39692872  0.70873993  0.27145281    -0.03500
C800        C  0.39583027  0.68308864  0.26535105    -0.07900
C801        C  0.40219304  0.66988989  0.29662915     0.05600
C802        C  0.40972003  0.68289887  0.33463495    -0.03000
Br803      Br  0.41653999  0.66640763  0.38108218    -0.02700
H804        H  0.41703912  0.71807039  0.36993436     0.09500
H805        H  0.39003893  0.67348733  0.23583599     0.07500
Br806      Br  0.38617751  0.72410372  0.22794587    -0.03100
C807        C  0.27342122  0.58761142  0.14287722    -0.09700
C808        C  0.27472581  0.59968293  0.10523104     0.06500
C809        C  0.29939615  0.60939991  0.08185256    -0.03500
C810        C  0.32134664  0.60616669  0.09600648    -0.07900
C811        C  0.31992030  0.59415789  0.13359550     0.05600
C812        C  0.29557190  0.58484361  0.15720362    -0.03000
Br813      Br  0.29031378  0.56684906  0.20860391    -0.02700
H814        H  0.25482706  0.57977686  0.16119880     0.09500
H815        H  0.34009316  0.61397388  0.07801992     0.07500
Br816      Br  0.30593725  0.62868436  0.03125214    -0.03100
C817        C  0.40089519  0.57500794  0.97743298    -0.09700
C818        C  0.41961016  0.57291652  0.00356652     0.06500
C819        C  0.44319484  0.57305806  0.98725855    -0.03500
C820        C  0.44667156  0.57353618  0.94552984    -0.07900
C821        C  0.42765960  0.57508677  0.91945704     0.05600
C822        C  0.40478785  0.57624173  0.93575822    -0.03000
Br823      Br  0.37719848  0.57775595  0.90267143    -0.02700
H824        H  0.38277793  0.57506179  0.98940300     0.09500
H825        H  0.46477317  0.57351955  0.93339859     0.07500
Br826      Br  0.47271710  0.57528292  0.02016785    -0.03100
C827        C  0.42568887  0.59439863  0.43891359    -0.09700
C828        C  0.42529853  0.57143268  0.41972982     0.06500
C829        C  0.42063747  0.54824471  0.44362323    -0.03500
C830        C  0.41653745  0.54852985  0.48510024    -0.07900
C831        C  0.41682921  0.57139438  0.50415625     0.05600
C832        C  0.42160666  0.59463482  0.48048887    -0.03000
Br833      Br  0.42435388  0.62803015  0.50285151    -0.02700
H834        H  0.42948938  0.61258624  0.42154693     0.09500
H835        H  0.41263890  0.53035123  0.50257531     0.07500
Br836      Br  0.41818935  0.51469843  0.42236323    -0.03100
C837        C  0.58452362  0.30195493  0.01675583    -0.09700
C838        C  0.59513237  0.32415342  0.04457596     0.06500
C839        C  0.60908780  0.32298904  0.07889726    -0.03500
C840        C  0.61161434  0.29947579  0.08561452    -0.07900
C841        C  0.59994623  0.27635639  0.05890939     0.05600
C842        C  0.58651826  0.27798843  0.02373100    -0.03000
Br843      Br  0.56933416  0.24817685  0.98500598    -0.02700
H844        H  0.57418935  0.30309710  0.98975499     0.09500
H845        H  0.62251159  0.29923026  0.11251601     0.07500
Br846      Br  0.62595696  0.35346160  0.11663308    -0.03100
C847        C  0.69646615  0.40903251  0.90562218    -0.09700
C848        C  0.67291445  0.39742239  0.88024040     0.06500
C849        C  0.67367351  0.38472264  0.84404668    -0.03500
C850        C  0.69773134  0.38396181  0.83389587    -0.07900
C851        C  0.72153161  0.39582291  0.85911540     0.05600
C852        C  0.72057869  0.40843400  0.89552852    -0.03000
Br853      Br  0.75145225  0.42637703  0.93227951    -0.02700
H854        H  0.69619979  0.41890535  0.93368201     0.09500
H855        H  0.69772482  0.37394473  0.80585818     0.07500
Br856      Br  0.64212598  0.36670217  0.80857554    -0.03100
C857        C  0.53593834  0.50527929  0.80734716    -0.09700
C858        C  0.53645052  0.50704174  0.84959168     0.06500
C859        C  0.52613576  0.52296449  0.86809908    -0.03500
C860        C  0.51382268  0.53483609  0.84458340    -0.07900
C861        C  0.51117386  0.53109962  0.80247090     0.05600
C862        C  0.52339510  0.51683707  0.78378478    -0.03000
Br863      Br  0.52209560  0.50988974  0.72685782    -0.02700
H864        H  0.54390449  0.49331873  0.79239290     0.09500
H865        H  0.50534381  0.54625116  0.85975443     0.07500
Br866      Br  0.52811937  0.52937863  0.92516283    -0.03100
C867        C  0.47044733  0.47245655  0.03448050    -0.09700
C868        C  0.48541278  0.46197876  0.05494059     0.06500
C869        C  0.48471890  0.46172213  0.09767749    -0.03500
C870        C  0.47192466  0.47433123  0.11829609    -0.07900
C871        C  0.45886821  0.48678166  0.09776042     0.05600
C872        C  0.45708264  0.48448540  0.05516145    -0.03000
Br873      Br  0.43845486  0.49857532  0.02210951    -0.02700
H874        H  0.47002108  0.47240543  0.00188854     0.09500
H875        H  0.47276512  0.47491031  0.15087751     0.07500
Br876      Br  0.50079388  0.44502259  0.13090721    -0.03100
C877        C  0.58362695  0.28454210  0.58986770    -0.09700
C878        C  0.59332506  0.27318772  0.56044835     0.06500
C879        C  0.60125581  0.28624750  0.52263814    -0.03500
C880        C  0.59963227  0.31033742  0.51515485    -0.07900
C881        C  0.59034805  0.32201535  0.54490916     0.05600
C882        C  0.58217768  0.30864314  0.58268810    -0.03000
Br883      Br  0.57047481  0.32264821  0.62702385    -0.02700
H884        H  0.57745908  0.27477087  0.61922941     0.09500
H885        H  0.60594190  0.32011692  0.48584266     0.07500
Br886      Br  0.61649191  0.27363126  0.48142931    -0.03100
C887        C  0.68940188  0.41636314  0.34945384    -0.09700
C888        C  0.67521657  0.39988538  0.38301008     0.06500
C889        C  0.68700580  0.38585609  0.40382215    -0.03500
C890        C  0.71251532  0.38904791  0.39138205    -0.07900
C891        C  0.72649027  0.40543506  0.35789832     0.05600
C892        C  0.71474869  0.41920807  0.33683528    -0.03000
Br893      Br  0.73320290  0.44342697  0.29187080    -0.02700
H894        H  0.68113696  0.42768971  0.33349472     0.09500
H895        H  0.72098467  0.37780605  0.40708989     0.07500
Br896      Br  0.66896878  0.36054673  0.44798960    -0.03100
C897        C  0.56683896  0.43900612  0.73328593    -0.09700
C898        C  0.57251240  0.41941174  0.75134909     0.06500
C899        C  0.57220136  0.39829179  0.72690297    -0.03500
C900        C  0.56807745  0.39834998  0.68536980    -0.07900
C901        C  0.56359816  0.41871947  0.66699855     0.05600
C902        C  0.56218241  0.43878749  0.69195231    -0.03000
Br903      Br  0.55416206  0.46689548  0.67304587    -0.02700
H904        H  0.56631271  0.45505261  0.75138444     0.09500
H905        H  0.56843470  0.38218642  0.66735443     0.08700
Br906      Br  0.57594397  0.36787379  0.74766122    -0.03100
C907        C  0.55235821  0.42320960  0.19251229    -0.09700
C908        C  0.57260121  0.42342179  0.16711127     0.06500
C909        C  0.59630636  0.42433851  0.18413585    -0.03500
C910        C  0.59949520  0.42527198  0.22596948    -0.07900
C911        C  0.57935435  0.42528637  0.25146668     0.05600
C912        C  0.55530572  0.42370843  0.23434397    -0.03000
Br913      Br  0.52462060  0.41959335  0.26626433    -0.02700
H914        H  0.53372714  0.42177525  0.17976573     0.09500
H915        H  0.61809632  0.42656047  0.23860482     0.07500
Br916      Br  0.62576532  0.42610640  0.15170397    -0.03100
C917        C  0.52716106  0.52358720  0.36729013    -0.09700
C918        C  0.54005297  0.51092665  0.34686529     0.06500
C919        C  0.54096870  0.51219281  0.30419787    -0.03500
C920        C  0.52690550  0.52341282  0.28342642    -0.07900
C921        C  0.51192942  0.53386753  0.30387227     0.05600
C922        C  0.51348626  0.53520705  0.34656340    -0.03000
Br923      Br  0.49725726  0.55186606  0.37964566    -0.02700
H924        H  0.52691444  0.52370270  0.39989264     0.09500
H925        H  0.52664768  0.52266728  0.25084737     0.07500
Br926      Br  0.55896722  0.49734735  0.27127084    -0.03100
C927        C  0.46519611  0.47007422  0.61331787    -0.09700
C928        C  0.46096300  0.49093715  0.59659408     0.06500
C929        C  0.46891935  0.49899172  0.55615999    -0.03500
C930        C  0.48112517  0.48656430  0.53369881    -0.07900
C931        C  0.48632025  0.46637687  0.55068013     0.05600
C932        C  0.47751236  0.45764194  0.59082264    -0.03000
Br933      Br  0.48117875  0.42860838  0.61683445    -0.02700
H934        H  0.45913999  0.46359389  0.64420604     0.09500
H935        H  0.48814628  0.49406814  0.50341998     0.07500
Br936      Br  0.46716431  0.52944293  0.53115376    -0.03100
loop_ 
_geom_bond_atom_site_label_1 
_geom_bond_atom_site_label_2 
_geom_bond_distance 
_geom_bond_site_symmetry_2 
_ccdc_geom_bond_type 
O1           Mg3   2.119       .  S
O1           Mg9   2.136       .  S
O1           C36   1.238       .  S
C2           O15   1.235       .  S
C2           O39   1.266       .  A
C2           H41   1.080       .  S
Mg3          O32   2.147       .  S
Mg3          O47   2.355       .  S
Mg3          O43   2.267       .  S
Mg3          O14   2.328       .  S
O4          Mg46   2.151       .  S
O4          Mg29   2.129       .  S
O4           C25   1.233       .  S
O5           C36   1.271       .  A
O5          Mg29   2.291       .  S
C6            O8   1.267       .  A
C6           O20   1.278       .  A
C6          C918   1.490       .  S
O7           C35   1.272       .  A
O7           Mg9   2.302       .  S
O8          Mg40   2.241       .  S
Mg9          O15   2.103       .  S
Mg9          O23   2.213       .  S
Mg9          O11   2.270       .  S
C10          O48   1.279       .  A
C10          O16   1.273       .  A
C10         C931   1.492       .  S
O11          C18   1.271       .  A
H12          C25   1.081       .  S
C13          O27   1.237       .  S
C13          O28   1.272       .  A
C13          H38   1.081       .  S
O14          C37   1.275       .  A
O15         Mg29   2.142       .  S
O16         Mg46   2.291       .  S
C17          O30   1.272       .  A
C17          O22   1.278       .  A
C17         C901   1.491       .  S
C18          O45   1.274       .  A
C18         C881   1.485       .  S
Mg19         O26   2.176       .  S
Mg19         O27   2.159       .  S
Mg19         O20   2.323       .  S
Mg19         O21   2.288       .  S
Mg19         O48   2.304       .  S
O21          C25   1.267       .  A
O22         Mg29   2.304       .  S
O23          C42   1.264       .  A
O24          C44   1.273       .  A
O24         Mg40   2.301       .  S
O26         Mg40   2.153       .  S
O26          C37   1.238       .  S
O27         Mg46   2.153       .  S
O28         Mg40   2.305       .  S
Mg29         O45   2.278       .  S
O30         Mg46   2.262       .  S
H31          C36   1.081       .  S
O32         Mg40   2.140       .  S
O32          C35   1.238       .  S
H33          C35   1.079       .  S
H34          C37   1.080       .  S
O39         Mg46   2.277       .  S
C42          O47   1.281       .  A
C42         C888   1.487       .  S
O43          C44   1.272       .  A
C44         C911   1.478       .  S
O49         Mg51   2.119       .  S
O49         Mg57   2.132       .  S
O49          C84   1.239       .  S
C50          O63   1.235       .  S
C50          O87   1.267       .  A
C50          H89   1.080       .  S
Mg51         O80   2.149       .  S
Mg51         O95   2.358       .  S
Mg51         O91   2.262       .  S
Mg51         O62   2.322       .  S
O52         Mg94   2.151       .  S
O52         Mg77   2.131       .  S
O52          C73   1.234       .  S
O53          C84   1.272       .  A
O53         Mg77   2.298   1_556  S
C54          O56   1.270       .  A
C54          O68   1.277       .  A
C54         C858   1.486       .  S
O55          C83   1.271       .  A
O55         Mg57   2.298       .  S
O56         Mg88   2.243       .  S
Mg57         O63   2.097   1_556  S
Mg57         O71   2.190       .  S
Mg57         O59   2.254   1_556  S
C58          O96   1.278   1_554  A
C58          O64   1.272       .  A
C58         C868   1.496       .  S
O59          C66   1.266       .  A
H60          C73   1.081       .  S
C61          O75   1.237       .  S
C61          O76   1.271       .  A
C61          H86   1.081       .  S
O62          C85   1.274       .  A
O63         Mg77   2.133       .  S
O64         Mg94   2.284       .  S
C65          O78   1.275       .  A
C65          O70   1.275       .  A
C65         C908   1.473       .  S
C66          O93   1.273       .  A
C66         C838   1.466       .  S
Mg67         O74   2.168       .  S
Mg67         O75   2.161       .  S
Mg67         O68   2.323       .  S
Mg67         O69   2.289       .  S
Mg67         O96   2.298       .  S
O69          C73   1.268   1_556  A
O70         Mg77   2.297       .  S
O71          C90   1.263       .  A
O72          C92   1.275       .  A
O72         Mg88   2.299       .  S
O74         Mg88   2.153       .  S
O74          C85   1.238       .  S
O75         Mg94   2.149   1_556  S
O76         Mg88   2.301       .  S
Mg77         O93   2.287       .  S
O78         Mg94   2.274       .  S
H79          C84   1.081       .  S
O80         Mg88   2.134       .  S
O80          C83   1.238       .  S
H81          C83   1.080       .  S
H82          C85   1.079       .  S
O87         Mg94   2.280       .  S
C90          O95   1.280       .  A
C90         C848   1.478       .  S
O91          C92   1.271       .  A
C92         C898   1.488       .  S
O97         Mg99   2.118       .  S
O97        Mg105   2.135       .  S
O97         C132   1.239       .  S
C98         O111   1.235       .  S
C98         O135   1.266       .  A
C98         H137   1.080       .  S
Mg99        O128   2.151       .  S
Mg99        O143   2.354       .  S
Mg99        O139   2.266       .  S
Mg99        O110   2.323       .  S
O100       Mg142   2.145       .  S
O100       Mg125   2.117       .  S
O100        C121   1.234       .  S
O101        C132   1.271       .  A
O101       Mg125   2.293       .  S
C102        O104   1.267       .  A
C102        O116   1.280       .  A
C102        C871   1.493       .  S
O103        C131   1.272       .  A
O103       Mg105   2.301       .  S
O104       Mg136   2.245       .  S
Mg105       O111   2.100       .  S
Mg105       O119   2.204       .  S
Mg105       O107   2.259       .  S
C106        O144   1.279       .  A
C106        O112   1.271       .  A
C106        C921   1.493       .  S
O107        C114   1.269       .  A
H108        C121   1.081       .  S
C109        O123   1.237       .  S
C109        O124   1.271       .  A
C109        H134   1.081       .  S
O110        C133   1.274       .  A
O111       Mg125   2.138       .  S
O112       Mg142   2.275       .  S
C113        O126   1.275       .  A
C113        O118   1.277       .  A
C113        C828   1.492       .  S
C114        O141   1.272       .  A
C114        C801   1.479       .  S
Mg115       O122   2.167       .  S
Mg115       O123   2.167       .  S
Mg115       O116   2.335       .  S
Mg115       O117   2.287       .  S
Mg115       O144   2.299       .  S
O117        C121   1.267       .  A
O118       Mg125   2.302       .  S
O119        C138   1.263       .  A
O120        C140   1.273       .  A
O120       Mg136   2.294       .  S
O122       Mg136   2.152       .  S
O122        C133   1.238       .  S
O123       Mg142   2.157       .  S
O124       Mg136   2.302       .  S
Mg125       O141   2.260       .  S
O126       Mg142   2.285       .  S
H127        C132   1.081       .  S
O128       Mg136   2.139       .  S
O128        C131   1.238       .  S
H129        C131   1.080       .  S
H130        C133   1.080       .  S
O135       Mg142   2.277       .  S
C138        O143   1.281       .  A
C138        C811   1.480       .  S
O139        C140   1.273       .  A
C140        C818   1.479       .  S
O145       Mg147   2.117       .  S
O145       Mg153   2.133       .  S
O145        C180   1.239       .  S
C146        O159   1.236       .  S
C146        O183   1.268       .  A
C146        H185   1.081       .  S
Mg147       O176   2.155       .  S
Mg147       O191   2.348       .  S
Mg147       O187   2.271       .  S
Mg147       O158   2.322       .  S
O148       Mg190   2.145       .  S
O148       Mg173   2.119       .  S
O148        C169   1.233       .  S
O149        C180   1.272       .  A
O149       Mg173   2.293       .  S
C150        O152   1.269       .  A
C150        O164   1.278       .  A
C150        C928   1.485       .  S
O151        C179   1.273       .  A
O151       Mg153   2.306       .  S
O152       Mg184   2.248       .  S
Mg153       O159   2.101       .  S
Mg153       O167   2.219       .  S
Mg153       O155   2.265       .  S
C154        O192   1.275       .  A
C154        O160   1.277       .  A
C154        C861   1.493       .  S
O155        C162   1.270       .  A
H156        C169   1.081       .  S
C157        O171   1.236       .  S
C157        O172   1.271       .  A
C157        H182   1.081       .  S
O158        C181   1.274       .  A
O159       Mg173   2.138       .  S
O160       Mg190   2.297       .  S
C161        O174   1.277       .  A
C161        O166   1.274       .  A
C161        C821   1.475       .  S
C162        O189   1.271       .  A
C162        C778   1.478       .  S
Mg163       O170   2.171       .  S
Mg163       O171   2.162       .  S
Mg163       O164   2.334       .  S
Mg163       O165   2.284       .  S
Mg163       O192   2.279       .  S
O165        C169   1.266       .  A
O166       Mg173   2.286       .  S
O167        C186   1.267       .  A
O168        C188   1.274       .  A
O168       Mg184   2.297       .  S
O170       Mg184   2.151       .  S
O170        C181   1.237       .  S
O171       Mg190   2.159       .  S
O172       Mg184   2.304       .  S
Mg173       O189   2.266       .  S
O174       Mg190   2.287       .  S
H175        C180   1.081       .  S
O176       Mg184   2.145       .  S
O176        C179   1.239       .  S
H177        C179   1.080       .  S
H178        C181   1.080       .  S
O183       Mg190   2.281       .  S
C186        O191   1.279       .  A
C186        C791   1.494       .  S
O187        C188   1.272       .  A
C188        C831   1.487       .  S
O193       Mg195   2.116       .  S
O193       Mg201   2.138       .  S
O193        C228   1.239       .  S
C194        O207   1.236       .  S
C194        O231   1.267       .  A
C194        H233   1.080       .  S
Mg195       O224   2.150       .  S
Mg195       O239   2.348       .  S
Mg195       O235   2.261       .  S
Mg195       O206   2.325       .  S
O196       Mg238   2.140       .  S
O196       Mg221   2.133       .  S
O196        C217   1.235       .  S
O197        C228   1.271       .  A
O197       Mg221   2.289   1_554  S
C198        O200   1.270       .  A
C198        O212   1.276       .  A
C198        C738   1.489       .  S
O199        C227   1.272       .  A
O199       Mg201   2.301       .  S
O200       Mg232   2.249       .  S
Mg201       O207   2.094   1_554  S
Mg201       O215   2.210       .  S
Mg201       O203   2.259   1_554  S
C202        O240   1.276   1_556  A
C202        O208   1.273       .  A
C202        C768   1.487       .  S
O203        C210   1.269       .  A
H204        C217   1.081       .  S
C205        O219   1.237       .  S
C205        O220   1.272       .  A
C205        H230   1.081   1_554  S
O206        C229   1.275       .  A
O207       Mg221   2.144       .  S
O208       Mg238   2.291       .  S
C209        O222   1.275       .  A
C209        O214   1.277       .  A
C209        C748   1.476       .  S
C210        O237   1.275       .  A
C210        C731   1.477       .  S
Mg211       O218   2.177       .  S
Mg211       O219   2.149       .  S
Mg211       O212   2.321       .  S
Mg211       O213   2.299       .  S
Mg211       O240   2.299       .  S
O213        C217   1.269   1_554  A
O214       Mg221   2.307       .  S
O215        C234   1.263       .  A
O216        C236   1.276       .  A
O216       Mg232   2.316       .  S
O218       Mg232   2.159       .  S
O218        C229   1.238       .  S
O219       Mg238   2.164   1_554  S
O220       Mg232   2.311       .  S
Mg221       O237   2.298       .  S
O222       Mg238   2.282       .  S
H223        C228   1.081       .  S
O224       Mg232   2.141       .  S
O224        C227   1.239       .  S
H225        C227   1.080       .  S
H226        C229   1.081       .  S
O231       Mg238   2.278       .  S
C234        O239   1.281       .  A
C234        C808   1.490       .  S
O235        C236   1.271       .  A
C236        C758   1.488       .  S
O241       Mg243   2.122       .  S
O241       Mg249   2.132       .  S
O241        C276   1.240       .  S
C242        O255   1.234       .  S
C242        O279   1.266       .  A
C242        H281   1.080       .  S
Mg243       O272   2.152       .  S
Mg243       O287   2.350       .  S
Mg243       O283   2.262       .  S
Mg243       O254   2.322       .  S
O244       Mg286   2.153       .  S
O244       Mg269   2.136       .  S
O244        C265   1.234       .  S
O245        C276   1.273       .  A
O245       Mg269   2.298       .  S
C246        O248   1.269       .  A
C246        O260   1.277       .  A
C246        C708   1.482       .  S
O247        C275   1.273       .  A
O247       Mg249   2.303       .  S
O248       Mg280   2.251       .  S
Mg249       O255   2.095       .  S
Mg249       O263   2.209       .  S
Mg249       O251   2.246       .  S
C250        O288   1.275       .  A
C250        O256   1.276       .  A
C250        C721   1.493       .  S
O251        C258   1.268       .  A
H252        C265   1.081       .  S
C253        O267   1.237       .  S
C253        O268   1.273       .  A
C253        H278   1.081       .  S
O254        C277   1.273       .  A
O255       Mg269   2.139       .  S
O256       Mg286   2.306       .  S
C257        O270   1.276       .  A
C257        O262   1.281       .  A
C257        C761   1.484       .  S
C258        O285   1.277       .  A
C258        C701   1.484       .  S
Mg259       O266   2.167       .  S
Mg259       O267   2.158       .  S
Mg259       O260   2.323       .  S
Mg259       O261   2.289       .  S
Mg259       O288   2.282       .  S
O261        C265   1.268       .  A
O262       Mg269   2.324       .  S
O263        C282   1.265       .  A
O264        C284   1.275       .  A
O264       Mg280   2.314       .  S
O266       Mg280   2.154       .  S
O266        C277   1.237       .  S
O267       Mg286   2.170       .  S
O268       Mg280   2.312       .  S
Mg269       O285   2.312       .  S
O270       Mg286   2.277       .  S
H271        C276   1.081       .  S
O272       Mg280   2.142       .  S
O272        C275   1.240       .  S
H273        C275   1.081       .  S
H274        C277   1.081       .  S
O279       Mg286   2.275       .  S
C282        O287   1.279       .  A
C282        C788   1.486       .  S
O283        C284   1.272       .  A
C284        C751   1.482       .  S
O289       Mg291   2.113       .  S
O289       Mg297   2.142       .  S
O289        C324   1.239       .  S
C290        O303   1.235       .  S
C290        O327   1.266       .  A
C290        H329   1.080       .  S
Mg291       O320   2.152       .  S
Mg291       O335   2.346       .  S
Mg291       O331   2.255       .  S
Mg291       O302   2.322       .  S
O292       Mg334   2.152       .  S
O292       Mg317   2.132       .  S
O292        C313   1.234       .  S
O293        C324   1.271       .  A
O293       Mg317   2.287       .  S
C294        O296   1.270       .  A
C294        O308   1.277       .  A
C294        C718   1.485       .  S
O295        C323   1.272       .  A
O295       Mg297   2.298       .  S
O296       Mg328   2.241       .  S
Mg297       O303   2.091       .  S
Mg297       O311   2.214       .  S
Mg297       O299   2.255       .  S
C298        O336   1.274       .  A
C298        O304   1.277       .  A
C298        C741   1.496       .  S
O299        C306   1.269       .  A
H300        C313   1.081       .  S
C301        O315   1.237       .  S
C301        O316   1.272       .  A
C301        H326   1.081       .  S
O302        C325   1.274       .  A
O303       Mg317   2.144       .  S
O304       Mg334   2.301       .  S
C305        O318   1.278       .  A
C305        O310   1.275       .  A
C305        C688   1.482       .  S
C306        O333   1.275       .  A
C306        C668   1.471       .  S
Mg307       O314   2.173       .  S
Mg307       O315   2.154       .  S
Mg307       O308   2.334       .  S
Mg307       O309   2.291       .  S
Mg307       O336   2.282       .  S
O309        C313   1.268       .  A
O310       Mg317   2.292       .  S
O311        C330   1.265       .  A
O312        C332   1.277       .  A
O312       Mg328   2.320       .  S
O314       Mg328   2.151       .  S
O314        C325   1.237       .  S
O315       Mg334   2.164       .  S
O316       Mg328   2.311       .  S
Mg317       O333   2.289       .  S
O318       Mg334   2.287       .  S
H319        C324   1.081       .  S
O320       Mg328   2.140       .  S
O320        C323   1.239       .  S
H321        C323   1.080       .  S
H322        C325   1.081       .  S
O327       Mg334   2.274       .  S
C330        O335   1.280       .  A
C330        C891   1.475       .  S
O331        C332   1.270       .  A
C332        C681   1.490       .  S
O337       Mg339   2.120       .  S
O337       Mg345   2.136       .  S
O337        C372   1.239       .  S
C338        O351   1.234       .  S
C338        O375   1.265       .  A
C338        H377   1.080       .  S
Mg339       O368   2.157       .  S
Mg339       O383   2.351       .  S
Mg339       O379   2.277       .  S
Mg339       O350   2.321       .  S
O340       Mg382   2.150       .  S
O340       Mg365   2.126       .  S
O340        C361   1.234       .  S
O341        C372   1.272       .  A
O341       Mg365   2.293       .  S
C342        O344   1.268       .  A
C342        O356   1.278       .  A
C342        C771   1.495       .  S
O343        C371   1.273       .  A
O343       Mg345   2.302       .  S
O344       Mg376   2.258       .  S
Mg345       O351   2.092       .  S
Mg345       O359   2.201       .  S
Mg345       O347   2.242       .  S
C346        O384   1.277       .  A
C346        O352   1.273       .  A
C346        C711   1.477       .  S
O347        C354   1.266       .  A
H348        C361   1.081       .  S
C349        O363   1.236       .  S
C349        O364   1.271       .  A
C349        H374   1.082       .  S
O350        C373   1.274       .  A
O351       Mg365   2.145       .  S
O352       Mg382   2.272       .  S
C353        O366   1.275       .  A
C353        O358   1.280       .  A
C353        C678   1.483       .  S
C354        O381   1.275       .  A
C354        C661   1.465       .  S
Mg355       O362   2.169       .  S
Mg355       O363   2.162       .  S
Mg355       O356   2.314       .  S
Mg355       O357   2.287       .  S
Mg355       O384   2.304       .  S
O357        C361   1.267       .  A
O358       Mg365   2.317       .  S
O359        C378   1.264       .  A
O360        C380   1.271       .  A
O360       Mg376   2.287       .  S
O362       Mg376   2.157       .  S
O362        C373   1.238       .  S
O363       Mg382   2.156       .  S
O364       Mg376   2.305       .  S
Mg365       O381   2.297       .  S
O366       Mg382   2.274       .  S
H367        C372   1.081       .  S
O368       Mg376   2.139       .  S
O368        C371   1.239       .  S
H369        C371   1.080       .  S
H370        C373   1.082       .  S
O375       Mg382   2.272       .  S
C378        O383   1.280       .  A
C378        C851   1.487       .  S
O379        C380   1.274       .  A
C380        C691   1.486       .  S
O385       Mg387   2.126       .  S
O385       Mg393   2.132       .  S
O385        C420   1.240       .  S
C386        O399   1.235       .  S
C386        O423   1.266       .  A
C386        H425   1.080       .  S
Mg387       O416   2.152       .  S
Mg387       O431   2.359       .  S
Mg387       O427   2.276   1_554  S
Mg387       O398   2.321       .  S
O388       Mg430   2.146       .  S
O388       Mg413   2.122       .  S
O388        C409   1.234       .  S
O389        C420   1.272       .  A
O389       Mg413   2.297       .  S
C390        O392   1.267       .  A
C390        O404   1.277       .  A
C390        C648   1.491       .  S
O391        C419   1.272       .  A
O391       Mg393   2.301       .  S
O392       Mg424   2.246       .  S
Mg393       O399   2.090       .  S
Mg393       O407   2.189       .  S
Mg393       O395   2.248       .  S
C394        O432   1.275       .  A
C394        O400   1.275       .  A
C394        C638   1.497       .  S
O395        C402   1.267       .  A
H396        C409   1.081       .  S
C397        O411   1.237       .  S
C397        O412   1.272       .  A
C397        H422   1.082       .  S
O398        C421   1.274       .  A
O399       Mg413   2.141       .  S
O400       Mg430   2.287       .  S
C401        O414   1.274       .  A
C401        O406   1.279       .  A
C401        C628   1.480       .  S
C402        O429   1.274       .  A
C402        C671   1.473       .  S
Mg403       O410   2.168       .  S
Mg403       O411   2.151       .  S
Mg403       O404   2.306       .  S
Mg403       O405   2.288       .  S
Mg403       O432   2.297       .  S
O405        C409   1.267       .  A
O406       Mg413   2.310       .  S
O407        C426   1.264       .  A
O408        C428   1.273       .  A
O408       Mg424   2.299   1_556  S
O410       Mg424   2.152       .  S
O410        C421   1.237       .  S
O411       Mg430   2.148       .  S
O412       Mg424   2.307       .  S
Mg413       O429   2.290       .  S
O414       Mg430   2.267       .  S
H415        C420   1.081       .  S
O416       Mg424   2.137       .  S
O416        C419   1.239       .  S
H417        C419   1.082       .  S
H418        C421   1.081       .  S
O423       Mg430   2.275       .  S
C426        O431   1.280       .  A
C426        C841   1.488       .  S
O427        C428   1.274       .  A
C428        C621   1.485       .  S
O433       Mg435   2.127       .  S
O433       Mg441   2.129       .  S
O433        C468   1.240       .  S
C434        O447   1.235       .  S
C434        O471   1.266       .  A
C434        H473   1.080       .  S
Mg435       O464   2.150       .  S
Mg435       O479   2.351       .  S
Mg435       O475   2.259       .  S
Mg435       O446   2.320       .  S
O436       Mg478   2.147       .  S
O436       Mg461   2.125       .  S
O436        C457   1.235       .  S
O437        C468   1.273       .  A
O437       Mg461   2.300       .  S
C438        O440   1.268       .  A
C438        O452   1.280       .  A
C438        C611   1.498       .  S
O439        C467   1.273       .  A
O439       Mg441   2.305       .  S
O440       Mg472   2.253       .  S
Mg441       O447   2.089       .  S
Mg441       O455   2.198       .  S
Mg441       O443   2.246       .  S
C442        O480   1.277       .  A
C442        O448   1.274       .  A
C442        C598   1.483       .  S
O443        C450   1.268       .  A
H444        C457   1.081       .  S
C445        O459   1.237       .  S
C445        O460   1.272       .  A
C445        H470   1.082       .  S
O446        C469   1.274       .  A
O447       Mg461   2.138       .  S
O448       Mg478   2.292       .  S
C449        O462   1.277       .  A
C449        O454   1.278       .  A
C449        C618   1.481       .  S
C450        O477   1.275       .  A
C450        C658   1.484       .  S
Mg451       O458   2.166       .  S
Mg451       O459   2.159       .  S
Mg451       O452   2.331       .  S
Mg451       O453   2.289       .  S
Mg451       O480   2.287       .  S
O453        C457   1.268       .  A
O454       Mg461   2.312       .  S
O455        C474   1.264       .  A
O456        C476   1.275       .  A
O456       Mg472   2.307       .  S
O458       Mg472   2.153       .  S
O458        C469   1.237       .  S
O459       Mg478   2.168       .  S
O460       Mg472   2.308       .  S
Mg461       O477   2.302       .  S
O462       Mg478   2.286       .  S
H463        C468   1.081       .  S
O464       Mg472   2.138       .  S
O464        C467   1.239       .  S
H465        C467   1.082       .  S
H466        C469   1.081       .  S
O471       Mg478   2.277       .  S
C474        O479   1.278       .  A
C474        C878   1.478       .  S
O475        C476   1.271       .  A
C476        C631   1.487       .  S
O481       Mg483   2.128       .  S
O481       Mg489   2.120       .  S
O481        C516   1.241       .  S
C482        O519   1.264       .  A
C482        H521   1.079       .  S
C482        O495   1.261       .  A
Mg483       O512   2.151       .  S
Mg483       O527   2.369       .  S
Mg483       O523   2.254       .  S
Mg483       O494   2.322       .  S
O484       Mg526   2.160       .  S
O484       Mg509   2.116       .  S
O484        C505   1.234       .  S
O485        C516   1.275       .  A
O485       Mg509   2.311       .  S
C486        O488   1.274       .  A
C486        O500   1.276       .  A
C486        C641   1.495       .  S
O487        C515   1.274       .  A
O487       Mg489   2.312       .  S
O488       Mg520   2.270       .  S
Mg489       O503   2.164       .  S
Mg489       O491   2.249       .  S
Mg489       O495   2.145       .  S
C490        O528   1.280       .  A
C490        O496   1.269       .  A
C490        C608   1.498       .  S
O491        C498   1.267       .  A
H492        C505   1.081       .  S
C493        O507   1.236       .  S
C493        O508   1.270       .  A
C493        H518   1.082       .  S
O494        C517   1.274       .  A
O495       Mg509   2.204       .  S
O496       Mg526   2.266       .  S
C497        O510   1.275       .  A
C497        O502   1.277       .  A
C497        C581   1.483       .  S
C498        O525   1.275       .  A
C498        C698   1.479       .  S
Mg499       O506   2.183       .  S
Mg499       O507   2.158       .  S
Mg499       O500   2.309       .  S
Mg499       O501   2.284       .  S
Mg499       O528   2.325       .  S
O501        C505   1.267       .  A
O502       Mg509   2.305       .  S
O503        C522   1.260       .  A
O504        C524   1.278       .  A
O504       Mg520   2.319       .  S
O506       Mg520   2.165       .  S
O506        C517   1.237       .  S
O507       Mg526   2.151       .  S
O508       Mg520   2.301       .  S
Mg509       O525   2.303       .  S
O510       Mg526   2.259       .  S
H511        C516   1.081       .  S
O512       Mg520   2.152       .  S
O512        C515   1.239       .  S
H513        C515   1.082       .  S
H514        C517   1.081       .  S
O519       Mg526   2.284       .  S
C522        O527   1.280       .  A
C522        C798   1.477       .  S
O523        C524   1.271       .  A
C524        C591   1.480       .  S
O529       Mg531   2.130       .  S
O529       Mg537   2.120       .  S
O529        C564   1.241       .  S
C530        O567   1.266       .  A
C530        H569   1.079       .  S
C530        O543   1.263       .  A
Mg531       O560   2.141       .  S
Mg531       O575   2.355       .  S
Mg531       O571   2.247       .  S
Mg531       O542   2.326       .  S
O532       Mg574   2.150       .  S
O532       Mg557   2.117       .  S
O532        C553   1.235       .  S
O533        C564   1.275       .  A
O533       Mg557   2.308       .  S
C534        O536   1.269       .  A
C534        O548   1.279       .  A
C534        C601   1.477       .  S
O535        C563   1.274       .  A
O535       Mg537   2.321       .  S
O536       Mg568   2.233       .  S
Mg537       O551   2.182       .  S
Mg537       O539   2.260       .  S
Mg537       O543   2.145       .  S
C538        O576   1.279       .  A
C538        O544   1.271       .  A
C538        C651   1.489       .  S
O539        C546   1.268       .  A
H540        C553   1.081       .  S
C541        O555   1.235       .  S
C541        O556   1.269       .  A
C541        H566   1.082       .  S
O542        C565   1.275       .  A
O543       Mg557   2.208       .  S
O544       Mg574   2.270       .  S
C545        O558   1.274       .  A
C545        O550   1.280       .  A
C545        C588   1.487       .  S
C546        O573   1.276       .  A
C546        C728   1.476       .  S
Mg547       O554   2.177       .  S
Mg547       O555   2.156       .  S
Mg547       O548   2.339       .  S
Mg547       O549   2.285       .  S
Mg547       O576   2.305       .  S
O549        C553   1.267       .  A
O550       Mg557   2.319   1_554  S
O551        C570   1.260       .  A
O552        C572   1.272       .  A
O552       Mg568   2.302       .  S
O554       Mg568   2.157       .  S
O554        C565   1.238       .  S
O555       Mg574   2.150       .  S
O556       Mg568   2.297       .  S
Mg557       O573   2.298       .  S
O558       Mg574   2.267   1_554  S
H559        C564   1.081       .  S
O560       Mg568   2.145       .  S
O560        C563   1.238       .  S
H561        C563   1.082       .  S
H562        C565   1.080       .  S
O567       Mg574   2.282       .  S
C570        O575   1.277       .  A
C570        C781   1.473       .  S
O571        C572   1.269       .  A
C572        C578   1.476       .  S
C577        H584   1.084       .  S
C577        C578   1.403       .  A
C577        C582   1.397       .  A
C578        C579   1.410       .  A
C579        C580   1.398       .  A
C579       Br586   1.921       .  S
C580        H585   1.083       .  S
C580        C581   1.408       .  A
C581        C582   1.414       .  A
C582       Br583   1.922       .  S
C587        H594   1.083       .  S
C587        C588   1.406       .  A
C587        C592   1.400       .  A
C588        C589   1.417       .  A
C589        C590   1.398       .  A
C589       Br596   1.923       .  S
C590        H595   1.084       .  S
C590        C591   1.402       .  A
C591        C592   1.412       .  A
C592       Br593   1.921       .  S
C597        H604   1.084       .  S
C597        C598   1.402   1_565  A
C597        C602   1.395       .  A
C598        C599   1.416       .  A
C599        C600   1.404   1_545  A
C599       Br606   1.920       .  S
C600        H605   1.083       .  S
C600        C601   1.402       .  A
C601        C602   1.413       .  A
C602       Br603   1.924       .  S
C607        H614   1.083       .  S
C607        C608   1.405       .  A
C607        C612   1.405   1_565  A
C608        C609   1.424       .  A
C609        C610   1.397   1_565  A
C609       Br616   1.927       .  S
C610        H615   1.083       .  S
C610        C611   1.403       .  A
C611        C612   1.422       .  A
C612       Br613   1.923       .  S
C617        H624   1.084       .  S
C617        C618   1.403       .  A
C617        C622   1.401       .  A
C618        C619   1.412       .  A
C619        C620   1.400       .  A
C619       Br626   1.921       .  S
C620        H625   1.084       .  S
C620        C621   1.404       .  A
C621        C622   1.417       .  A
C622       Br623   1.923       .  S
C627        H634   1.084       .  S
C627        C628   1.403       .  A
C627        C632   1.399       .  A
C628        C629   1.411       .  A
C629        C630   1.399       .  A
C629       Br636   1.921       .  S
C630        H635   1.083       .  S
C630        C631   1.407       .  A
C631        C632   1.415       .  A
C632       Br633   1.919       .  S
C637        H644   1.083       .  S
C637        C638   1.409       .  A
C637        C642   1.397   1_545  A
C638        C639   1.415   1_545  A
C639        C640   1.404       .  A
C639       Br646   1.922       .  S
C640        H645   1.083       .  S
C640        C641   1.410       .  A
C641        C642   1.416       .  A
C642       Br643   1.926   1_565  S
C647        H654   1.083       .  S
C647        C648   1.403       .  A
C647        C652   1.393   1_545  A
C648        C649   1.419   1_554  A
C649        C650   1.403       .  A
C649       Br656   1.922       .  S
C650        H655   1.083   1_545  S
C650        C651   1.405   1_545  A
C651        C652   1.419   1_556  A
C652       Br653   1.925       .  S
C657        H664   1.084       .  S
C657        C658   1.410       .  A
C657        C662   1.396       .  A
C658        C659   1.414       .  A
C659        C660   1.401       .  A
C659       Br666   1.920       .  S
C660        H665   1.084       .  S
C660        C661   1.403       .  A
C661        C662   1.403       .  A
C662       Br663   1.919       .  S
C667        H674   1.084       .  S
C667        C668   1.403       .  A
C667        C672   1.400       .  A
C668        C669   1.409       .  A
C669        C670   1.397       .  A
C669       Br676   1.921       .  S
C670        H675   1.084       .  S
C670        C671   1.404       .  A
C671        C672   1.411       .  A
C672       Br673   1.920       .  S
C677        H684   1.084       .  S
C677        C678   1.403       .  A
C677        C682   1.399       .  A
C678        C679   1.413       .  A
C679        C680   1.401       .  A
C679       Br686   1.922       .  S
C680        H685   1.083       .  S
C680        C681   1.408       .  A
C681        C682   1.417       .  A
C682       Br683   1.923       .  S
C687        H694   1.084       .  S
C687        C688   1.402       .  A
C687        C692   1.398       .  A
C688        C689   1.415       .  A
C689        C690   1.400       .  A
C689       Br696   1.923       .  S
C690        H695   1.083       .  S
C690        C691   1.404   1_554  A
C691        C692   1.417   1_556  A
C692       Br693   1.924   1_554  S
C697        H704   1.084       .  S
C697        C698   1.410       .  A
C697        C702   1.400       .  A
C698        C699   1.404       .  A
C699        C700   1.399       .  A
C699       Br706   1.919       .  S
C700        H705   1.084       .  S
C700        C701   1.413       .  A
C701        C702   1.407       .  A
C702       Br703   1.919       .  S
C707        H714   1.083       .  S
C707        C708   1.410       .  A
C707        C712   1.407   1_455  A
C708        C709   1.411       .  A
C709        C710   1.393   1_455  A
C709       Br716   1.922       .  S
C710        H715   1.084       .  S
C710        C711   1.402       .  A
C711        C712   1.407       .  A
C712       Br713   1.916       .  S
C717        H724   1.084       .  S
C717        C718   1.404       .  A
C717        C722   1.396       .  A
C718        C719   1.409       .  A
C719        C720   1.405   1_655  A
C719       Br726   1.919   1_655  S
C720        H725   1.083       .  S
C720        C721   1.412       .  A
C721        C722   1.416   1_455  A
C722       Br723   1.921       .  S
C727        H734   1.084       .  S
C727        C728   1.404       .  A
C727        C732   1.403       .  A
C728        C729   1.410       .  A
C729        C730   1.397       .  A
C729       Br736   1.921       .  S
C730        H735   1.084       .  S
C730        C731   1.404       .  A
C731        C732   1.411       .  A
C732       Br733   1.920       .  S
C737        H744   1.084       .  S
C737        C738   1.407       .  A
C737        C742   1.400       .  A
C738        C739   1.411       .  A
C739        C740   1.400   1_455  A
C739       Br746   1.922   1_455  S
C740        H745   1.083       .  S
C740        C741   1.411       .  A
C741        C742   1.418   1_655  A
C742       Br743   1.924       .  S
C747        H754   1.084       .  S
C747        C748   1.402       .  A
C747        C752   1.398       .  A
C748        C749   1.409       .  A
C749        C750   1.401       .  A
C749       Br756   1.919       .  S
C750        H755   1.084       .  S
C750        C751   1.407       .  A
C751        C752   1.412       .  A
C752       Br753   1.919       .  S
C757        H764   1.084       .  S
C757        C758   1.407       .  A
C757        C762   1.400       .  A
C758        C759   1.415       .  A
C759        C760   1.401       .  A
C759       Br766   1.922       .  S
C760        H765   1.084       .  S
C760        C761   1.405       .  A
C761        C762   1.412       .  A
C762       Br763   1.922       .  S
C767        H774   1.083       .  S
C767        C768   1.405   1_655  A
C767        C772   1.407       .  A
C768        C769   1.415       .  A
C769        C770   1.393   1_455  A
C769       Br776   1.925       .  S
C770        H775   1.083       .  S
C770        C771   1.405       .  A
C771        C772   1.421       .  A
C772       Br773   1.922       .  S
C777        H784   1.083       .  S
C777        C778   1.412       .  A
C777        C782   1.400       .  A
C778        C779   1.408       .  A
C779        C780   1.392       .  A
C779       Br786   1.923       .  S
C780        H785   1.084       .  S
C780        C781   1.408       .  A
C781        C782   1.403       .  A
C782       Br783   1.918       .  S
C787        H794   1.084       .  S
C787        C788   1.410       .  A
C787        C792   1.399       .  A
C788        C789   1.407       .  A
C789        C790   1.400       .  A
C789       Br796   1.919       .  S
C790        H795   1.083       .  S
C790        C791   1.415       .  A
C791        C792   1.413       .  A
C792       Br793   1.923       .  S
C797        H804   1.084       .  S
C797        C798   1.409       .  A
C797        C802   1.390       .  A
C798        C799   1.405       .  A
C799        C800   1.402       .  A
C799       Br806   1.918       .  S
C800        H805   1.083       .  S
C800        C801   1.413       .  A
C801        C802   1.408       .  A
C802       Br803   1.925       .  S
C807        H814   1.083       .  S
C807        C808   1.403       .  A
C807        C812   1.398       .  A
C808        C809   1.424       .  A
C809        C810   1.400       .  A
C809       Br816   1.925       .  S
C810        H815   1.084       .  S
C810        C811   1.398       .  A
C811        C812   1.417       .  A
C812       Br813   1.924       .  S
C817        H824   1.084       .  S
C817        C818   1.403   1_556  A
C817        C822   1.398       .  A
C818        C819   1.414   1_554  A
C819        C820   1.399       .  A
C819       Br826   1.922   1_556  S
C820        H825   1.084       .  S
C820        C821   1.401       .  A
C821        C822   1.412       .  A
C822       Br823   1.921       .  S
C827        H834   1.083       .  S
C827        C828   1.410       .  A
C827        C832   1.401       .  A
C828        C829   1.416       .  A
C829        C830   1.399       .  A
C829       Br836   1.922       .  S
C830        H835   1.083       .  S
C830        C831   1.405       .  A
C831        C832   1.412       .  A
C832       Br833   1.922       .  S
C837        H844   1.084   1_554  S
C837        C838   1.405       .  A
C837        C842   1.403       .  A
C838        C839   1.398       .  A
C839        C840   1.393       .  A
C839       Br846   1.920       .  S
C840        H845   1.083       .  S
C840        C841   1.414       .  A
C841        C842   1.414       .  A
C842       Br843   1.920   1_554  S
C847        H854   1.084       .  S
C847        C848   1.409       .  A
C847        C852   1.397       .  A
C848        C849   1.403       .  A
C849        C850   1.399       .  A
C849       Br856   1.920       .  S
C850        H855   1.083       .  S
C850        C851   1.415       .  A
C851        C852   1.410       .  A
C852       Br853   1.922       .  S
C857        H864   1.084       .  S
C857        C858   1.406       .  A
C857        C862   1.398       .  A
C858        C859   1.410       .  A
C859        C860   1.401       .  A
C859       Br866   1.922       .  S
C860        H865   1.083       .  S
C860        C861   1.411       .  A
C861        C862   1.417       .  A
C862       Br863   1.924       .  S
C867        H874   1.083       .  S
C867        C868   1.405       .  A
C867        C872   1.401       .  A
C868        C869   1.421       .  A
C869        C870   1.400       .  A
C869       Br876   1.923       .  S
C870        H875   1.083       .  S
C870        C871   1.403       .  A
C871        C872   1.420       .  A
C872       Br873   1.922       .  S
C877        H884   1.084       .  S
C877        C878   1.407       .  A
C877        C882   1.394       .  A
C878        C879   1.405       .  A
C879        C880   1.401       .  A
C879       Br886   1.916       .  S
C880        H885   1.083       .  S
C880        C881   1.413       .  A
C881        C882   1.411       .  A
C882       Br883   1.923       .  S
C887        H894   1.083       .  S
C887        C888   1.404       .  A
C887        C892   1.400       .  A
C888        C889   1.421       .  A
C889        C890   1.399       .  A
C889       Br896   1.924       .  S
C890        H895   1.084       .  S
C890        C891   1.397       .  A
C891        C892   1.413       .  A
C892       Br893   1.921       .  S
C897        H904   1.083       .  S
C897        C898   1.406       .  A
C897        C902   1.397       .  A
C898        C899   1.414       .  A
C899        C900   1.399       .  A
C899       Br906   1.923       .  S
C900        H905   1.083       .  S
C900        C901   1.409       .  A
C901        C902   1.418       .  A
C902       Br903   1.924       .  S
C907        H914   1.083       .  S
C907        C908   1.401       .  A
C907        C912   1.398       .  A
C908        C909   1.410       .  A
C909        C910   1.399       .  A
C909       Br916   1.920       .  S
C910        H915   1.083       .  S
C910        C911   1.404       .  A
C911        C912   1.413       .  A
C912       Br913   1.921       .  S
C917        H924   1.084       .  S
C917        C918   1.403       .  A
C917        C922   1.398       .  A
C918        C919   1.419       .  A
C919        C920   1.400       .  A
C919       Br926   1.923       .  S
C920        H925   1.083       .  S
C920        C921   1.404       .  A
C921        C922   1.421       .  A
C922       Br923   1.925       .  S
C927        H934   1.084       .  S
C927        C928   1.402       .  A
C927        C932   1.405       .  A
C928        C929   1.415       .  A
C929        C930   1.399       .  A
C929       Br936   1.923       .  S
C930        H935   1.083       .  S
C930        C931   1.404       .  A
C931        C932   1.419       .  A
C932       Br933   1.922       .  S
