geometry optimzed in LAMMPS
_audit_creation_date              2020-12-01 
_audit_creation_method            'lammps2cif' 
_symmetry_space_group_name_H-M    'P1' 
_symmetry_Int_Tables_number       1 
_symmetry_cell_setting            triclinic 
loop_ 
_symmetry_equiv_pos_as_xyz 
  x,y,z 
_cell_length_a                    37.37381208 
_cell_length_b                    37.44506308474252 
_cell_length_c                    38.15386362020057 
_cell_angle_alpha                 89.80580384003719 
_cell_angle_beta                  89.84279870245103 
_cell_angle_gamma                 119.8810643604675 
loop_ 
_atom_site_label 
_atom_site_type_symbol 
_atom_site_fract_x 
_atom_site_fract_y 
_atom_site_fract_z 
_atom_site_charge 
O1          O  0.36383035  0.08414368  0.12402506    -0.84100
O2          O  0.41705964  0.14899146  0.08427112    -0.81100
C3          C  0.42858636  0.17677913  0.10740747     0.99400
O4          O  0.45397835  0.18017417  0.13058880    -0.81200
O5          O  0.49087668  0.15523891  0.17969102    -0.83800
C6          C  0.46227086  0.13650626  0.20235521     1.03900
O7          O  0.43026900  0.10381473  0.19429865    -0.76600
O8          O  0.37076261  0.03990041  0.15670401    -0.76800
C9          C  0.34922182  0.05510760  0.14584851     1.03900
O10         O  0.38769625  0.02981063  0.09110504    -0.84100
O11         O  0.44700476  0.09870531  0.05351164    -0.81100
C12         C  0.47871752  0.13331535  0.04815553     0.99400
O13         O  0.99650905  0.16298075  0.07369311    -0.81200
O14         O  0.02693113  0.13267405  0.12424876    -0.83800
C15         C  0.02738750  0.10877969  0.14732881     1.03900
O16         O  0.49353214  0.08679617  0.16758371    -0.76600
O17         O  0.43517222  0.03024496  0.12478045    -0.76700
C18         C  0.40508996  0.01132830  0.10466015     1.03800
Cr19       Cr  0.40658492  0.09117410  0.09051360     1.93700
Cr20       Cr  0.48719692  0.15259497  0.12619359     1.93200
Cr21       Cr  0.43315948  0.06785879  0.15853969     1.39100
O22         O  0.44246481  0.10383278  0.12483953    -1.21800
O23         O  0.39391314  0.26674090  0.09580225    -0.84100
O24         O  0.31970364  0.25026421  0.07054796    -0.81100
C25         C  0.28968616  0.23436585  0.09283007     0.99400
O26         O  0.28311557  0.25649107  0.11432673    -0.81200
O27         O  0.30692229  0.32408471  0.16159347    -0.83800
C28         C  0.31864538  0.31120520  0.18679727     1.03900
O29         O  0.34200185  0.29705813  0.18070838    -0.76600
O30         O  0.40042412  0.28297325  0.15165230    -0.76800
C31         C  0.40207484  0.26164742  0.12666836     1.03900
O32         O  0.43493771  0.35066185  0.07233936    -0.84100
O33         O  0.36478692  0.33782229  0.04243958    -0.81100
C34         C  0.32882998  0.32996216  0.03664184     0.99400
O35         O  0.30174514  0.31104102  0.05931414    -0.81200
O36         O  0.34524279  0.37771871  0.10650768    -0.83800
C37         C  0.37218624  0.39877744  0.12949089     1.03900
O38         O  0.38473806  0.38209273  0.15214585    -0.76600
O39         O  0.44327233  0.36622565  0.12825932    -0.76700
C40         C  0.45713837  0.37219806  0.09755397     1.03800
Cr41       Cr  0.37669387  0.30233502  0.07293658     1.93700
Cr42       Cr  0.31316514  0.31701068  0.11053379     1.93200
Cr43       Cr  0.38996408  0.33072654  0.15030545     1.39100
O44         O  0.36072443  0.31644145  0.11136622    -1.21800
O45         O  0.22940073  0.06143708  0.17651759    -0.84100
O46         O  0.21459220  0.11349934  0.13771839    -0.81100
C47         C  0.19960488  0.12643462  0.11485645     0.99400
O48         O  0.16354361  0.10303088  0.10345657    -0.81200
O49         O  0.16913549  0.04244744  0.06581852    -0.83800
C50         C  0.17063110  0.01031037  0.05903011     1.03900
O51         O  0.13999997  0.47576471  0.07991735    -0.76600
O52         O  0.22343244  0.01953160  0.13362333    -0.76800
C53         C  0.24489729  0.04612877  0.15621462     1.03900
O54         O  0.14961633  0.02667736  0.20808219    -0.84100
O55         O  0.13462883  0.08293166  0.17212303    -0.81100
C56         C  0.09854983  0.06454253  0.15930354     0.99400
O57         O  0.08934254  0.03875816  0.13512516    -0.81200
O58         O  0.07829147  0.48518435  0.09761753    -0.83800
C59         C  0.06668757  0.45670583  0.12047094     1.03900
O60         O  0.09207691  0.45688199  0.14224546    -0.76600
O61         O  0.16197243  0.48272627  0.18181076    -0.76700
C62         C  0.15631049  0.50048064  0.20744977     1.03800
Cr63       Cr  0.17998910  0.06817241  0.17080931     1.93700
Cr64       Cr  0.13058297  0.04063179  0.10206680     1.93200
Cr65       Cr  0.15138686  0.48526706  0.13094522     1.39100
O66         O  0.15791561  0.03206069  0.13621068    -1.21800
O67         O  0.25274023  0.32218297  0.32287874    -0.84100
O68         O  0.26790028  0.38867833  0.36156852    -0.81100
C69         C  0.28350930  0.41727505  0.38352363     0.99400
O70         O  0.31969563  0.42986339  0.39467575    -0.81200
O71         O  0.31715367  0.36377796  0.43162712    -0.83800
C72         C  0.31846584  0.33135142  0.43777985     1.03900
O73         O  0.32542475  0.31294437  0.41326662    -0.76600
O74         O  0.26144839  0.28700968  0.36522065    -0.76800
C75         C  0.23840915  0.29170122  0.34373316     1.03900
O76         O  0.33155906  0.36901313  0.28911892    -0.84100
O77         O  0.34606408  0.43983764  0.32551476    -0.81100
C78         C  0.38221780  0.45854947  0.33836497     0.99400
O79         O  0.39305146  0.44142319  0.36097305    -0.81200
O80         O  0.39570960  0.38277381  0.40173334    -0.83800
C81         C  0.40741242  0.36549772  0.37961658     1.03900
O82         O  0.38300086  0.34257528  0.35626875    -0.76600
O83         O  0.31882567  0.30876724  0.30927803    -0.76700
C84         C  0.32829474  0.33416696  0.28441936     1.03800
Cr85       Cr  0.30176602  0.37904470  0.32732062     1.93700
Cr86       Cr  0.35378402  0.40137149  0.39458287     1.93200
Cr87       Cr  0.32239134  0.31660865  0.36104600     1.39100
O88         O  0.32583657  0.36562044  0.36082860    -1.21800
O89         O  0.08720054  0.36280924  0.39794826    -0.84100
O90         O  0.16277608  0.42066439  0.42186476    -0.81100
C91         C  0.19285715  0.43555789  0.39975594     0.99400
O92         O  0.19905170  0.46432405  0.37818281    -0.81200
O93         O  0.17270879  0.50841053  0.33179809    -0.83800
C94         C  0.16091742  0.48498027  0.30601825     1.03900
O95         O  0.13776581  0.44728169  0.31123697    -0.76600
O96         O  0.08330448  0.37325125  0.34162619    -0.76800
C97         C  0.08013711  0.34984214  0.36697696     1.03900
O98         O  0.04864611  0.40719645  0.42320364    -0.84100
O99         O  0.11912096  0.46301361  0.45120635    -0.81100
C100        C  0.15514403  0.49088647  0.45668984     0.99400
O101        O  0.17710924  0.99571290  0.43996834    -0.81200
O102        O  0.13051120  0.01774171  0.39443000    -0.83800
C103        C  0.10138429  0.01085673  0.37331595     1.03900
O104        O  0.09276658  0.48553856  0.34349974    -0.76600
O105        O  0.03720397  0.40910806  0.36708018    -0.76700
C106        C  0.02488520  0.40349424  0.39829908     1.03800
Cr107      Cr  0.10607268  0.41590317  0.42077220     1.93700
Cr108      Cr  0.16787524  0.49398193  0.38250102     1.93200
Cr109      Cr  0.09059994  0.43022484  0.34371042     1.39100
O110        O  0.12097640  0.44558648  0.38208331    -1.21800
O111        O  0.11611999  0.21004920  0.37358986    -0.84100
O112        O  0.06127028  0.22103192  0.41128844    -0.81100
C113        C  0.05073472  0.23772605  0.38750698     0.99400
O114        O  0.02576861  0.21607256  0.36405191    -0.81200
O115        O  0.48279859  0.15238343  0.31506583    -0.83800
C116        C  0.01676635  0.16364066  0.29294026     1.03900
O117        O  0.04936481  0.16402708  0.30137203    -0.76600
O118        O  0.10994962  0.16035569  0.33967406    -0.76800
C119        C  0.13153361  0.19637471  0.35192428     1.03900
O120        O  0.09113254  0.13113936  0.40601776    -0.84100
O121        O  0.03063104  0.14050588  0.44213719    -0.81100
C122        C  0.49827971  0.14382601  0.44588376     0.99400
O123        O  0.48459314  0.15721405  0.42161603    -0.81200
O124        O  0.45686635  0.09526451  0.37321864    -0.83800
C125        C  0.45805692  0.07118128  0.35091322     1.03900
O126        O  0.48587134  0.08455408  0.32718877    -0.76600
O127        O  0.04603786  0.08507130  0.37044156    -0.76700
C128        C  0.07497930  0.09579207  0.39183465     1.03800
Cr129      Cr  0.07205637  0.17368599  0.40587863     1.93700
Cr130      Cr  0.48980574  0.15517298  0.36832940     1.93200
Cr131      Cr  0.04726459  0.12519447  0.33724128     1.39100
O132        O  0.03701787  0.15106739  0.37092661    -1.21800
C133        C  0.06664601  0.28244424  0.38887683    -0.15200
C134        C  0.06657736  0.30565060  0.36160341    -0.29100
H135        H  0.07967819  0.29697701  0.41381616     0.13900
H136        H  0.05527686  0.29188733  0.33609367     0.14400
C137        C  0.08326718  0.03785681  0.37336352    -0.15200
C138        C  0.09257020  0.06838924  0.39663499    -0.30300
H139        H  0.06118899  0.03224557  0.35266314     0.13900
H140        H  0.11521956  0.07504300  0.41703203     0.14400
C141        C  0.41124553  0.50251253  0.33086774    -0.15200
C142        C  0.42853448  0.02704984  0.35540552    -0.30300
H143        H  0.42764753  0.51175919  0.30600875     0.13900
H144        H  0.42226283  0.01625939  0.38245001     0.14400
C145        C  0.19356607  0.26340376  0.34429637    -0.15200
C146        C  0.17587317  0.22214257  0.34350773    -0.30300
H147        H  0.17420289  0.27741111  0.34622604     0.13900
H148        H  0.19435399  0.20758305  0.33893262     0.14400
C149        C  0.26028588  0.43811323  0.39362021    -0.15200
C150        C  0.21916254  0.41650792  0.39804863    -0.30300
H151        H  0.27660957  0.47150134  0.39522970     0.13900
H152        H  0.20369628  0.38306963  0.39904942     0.14400
C153        C  0.44995060  0.37247901  0.37979275    -0.15200
C154        C  0.47748174  0.39029288  0.40600163    -0.30300
H155        H  0.45951744  0.36338297  0.35609741     0.13900
H156        H  0.97224554  0.39817409  0.43020355     0.14400
C157        C  0.17033468  0.50305533  0.27048375    -0.15200
C158        C  0.15031088  0.48124473  0.24221961    -0.30300
H159        H  0.19140288  0.53599828  0.26786906     0.13900
H160        H  0.13142578  0.94245116  0.24918424     0.14400
C161        C  0.14703219  0.48658814  0.01970454    -0.15200
C162        C  0.16617132  0.51002212  0.49112045    -0.30300
H163        H  0.13121345  0.45333109  0.01625681     0.13900
H164        H  0.15450511  0.03529225  0.49987041     0.14400
C165        C  0.31783333  0.31716658  0.47390886    -0.15200
C166        C  0.31879639  0.34159362  0.00314268    -0.30300
H167        H  0.32500647  0.29257688  0.47745961     0.13900
H168        H  0.32481254  0.37293804  0.99986166     0.14400
C169        C  0.33438389  0.32179697  0.24952681    -0.15200
C170        C  0.30989786  0.31877433  0.22275864    -0.30300
H171        H  0.35836273  0.31372632  0.24614401     0.13900
H172        H  0.28582631  0.32664388  0.22673984     0.14400
C173        C  0.22303658  0.17030949  0.10399684    -0.15200
C174        C  0.26325455  0.18890086  0.09494096    -0.30300
H175        H  0.20745620  0.18821818  0.10535960     0.13900
H176        H  0.27792375  0.17038057  0.09116017     0.14400
C177        C  0.50044619  0.40583788  0.09234200    -0.15200
C178        C  0.02369236  0.42259224  0.12238051    -0.30300
H179        H  0.51195645  0.41719810  0.06612087     0.13900
H180        H  0.01393305  0.40727476  0.14770944     0.14400
C181        C  0.46704683  0.14865565  0.23968346    -0.15200
C182        C  0.50430773  0.16954730  0.25443907    -0.30300
H183        H  0.44002057  0.13261789  0.25650252     0.13900
H184        H  0.03807928  0.18074436  0.23846980     0.14400
C185        C  0.49877178  0.14341056  0.01268401    -0.15200
C186        C  0.47813524  0.13350316  0.48124760    -0.30300
H187        H  0.03536354  0.16581263  0.01214735     0.13900
H188        H  0.44463558  0.11621432  0.48226830     0.14400
C189        C  0.41335397  0.20616412  0.10561491    -0.15200
C190        C  0.41491095  0.23047742  0.13240509    -0.30300
H191        H  0.39977597  0.20737208  0.08079692     0.13900
H192        H  0.42677752  0.22832450  0.15781467     0.14400
C193        C  0.38079444  0.46651746  0.10971128    -0.15200
C194        C  0.38938021  0.44356138  0.13176947    -0.30300
H195        H  0.36343129  0.94963577  0.08215887     0.13900
H196        H  0.41050061  0.45834258  0.15339813     0.14400
C197        C  0.28929489  0.06187061  0.15774996    -0.15200
C198        C  0.30573365  0.03730349  0.15583964    -0.30300
H199        H  0.30924903  0.09514394  0.15799145     0.13900
H200        H  0.28647280  0.00406040  0.15803824     0.14400
C201        C  0.06775649  0.07638197  0.16904438    -0.15200
C202        C  0.06325158  0.10231207  0.14757098    -0.30300
H203        H  0.04548410  0.05968998  0.18968719     0.13900
H204        H  0.08580096  0.11735200  0.12664624     0.14400
O205        O  0.36307537  0.08178133  0.62135294    -0.84100
O206        O  0.41575056  0.14790098  0.58271779    -0.81100
C207        C  0.42604479  0.17505671  0.60631026     0.99400
O208        O  0.45101325  0.17845665  0.62986586    -0.81200
O209        O  0.48925687  0.15506159  0.67916572    -0.83800
C210        C  0.46079029  0.13494018  0.70163588     1.03900
O211        O  0.42941054  0.10206699  0.69287399    -0.76600
O212        O  0.37082685  0.03838581  0.65453654    -0.76800
C213        C  0.34882376  0.05301491  0.64343561     1.03900
O214        O  0.38935778  0.02937002  0.58835472    -0.84100
O215        O  0.44838945  0.09987802  0.55190009    -0.81100
C216        C  0.47927932  0.13518902  0.54700933     0.99400
O217        O  0.99511443  0.16283961  0.57301324    -0.81200
O218        O  0.02464340  0.13048112  0.62206868    -0.83800
C219        C  0.02489679  0.10591692  0.64452004     1.03900
O220        O  0.49402558  0.08719265  0.66579832    -0.76600
O221        O  0.43619158  0.02975879  0.62284582    -0.76700
C222        C  0.40645125  0.01081638  0.60236913     1.03800
Cr223      Cr  0.40692090  0.09050299  0.58843292     1.93700
Cr224      Cr  0.48608629  0.15302987  0.62548503     1.93200
Cr225      Cr  0.43338318  0.06712226  0.65663947     1.39100
O226        O  0.44240049  0.10341690  0.62323013    -1.21800
O227        O  0.39695767  0.26924295  0.59564712    -0.84100
O228        O  0.32059459  0.25015128  0.57268821    -0.81100
C229        C  0.29055604  0.23491365  0.59501771     0.99400
O230        O  0.28366218  0.25761581  0.61576143    -0.81200
O231        O  0.30920269  0.32717725  0.66258047    -0.83800
C232        C  0.32076739  0.31470207  0.68811527     1.03900
O233        O  0.34295331  0.29918337  0.68231353    -0.76600
O234        O  0.39637020  0.27925650  0.65228201    -0.76800
C235        C  0.40091407  0.26050026  0.62665278     1.03900
O236        O  0.43404311  0.35297212  0.57182636    -0.84100
O237        O  0.36269877  0.33591206  0.54166255    -0.81100
C238        C  0.32657959  0.32799249  0.53658676     0.99400
O239        O  0.30083690  0.31195311  0.56075054    -0.81200
O240        O  0.34771937  0.37898675  0.60733452    -0.83800
C241        C  0.37598881  0.39995977  0.62948918     1.03900
O242        O  0.38908503  0.38322105  0.65170134    -0.76600
O243        O  0.44518863  0.36217894  0.62840936    -0.76700
C244        C  0.45778003  0.37133254  0.59732518     1.03800
Cr245      Cr  0.37693283  0.30298816  0.57324069     1.93700
Cr246      Cr  0.31436420  0.31842986  0.61166885     1.93200
Cr247      Cr  0.39078868  0.32985467  0.65075775     1.39100
O248        O  0.36135894  0.31691758  0.61193105    -1.21800
O249        O  0.22926109  0.05915147  0.67571100    -0.84100
O250        O  0.21526998  0.11231574  0.63768802    -0.81100
C251        C  0.20045038  0.12560641  0.61495859     0.99400
O252        O  0.16446612  0.10235461  0.60334965    -0.81200
O253        O  0.16743600  0.03962674  0.56639102    -0.83800
C254        C  0.16734587  0.00656263  0.56010379     1.03900
O255        O  0.14464918  0.47270815  0.57890663    -0.76600
O256        O  0.22063491  0.01559945  0.63341716    -0.76800
C257        C  0.24350620  0.04303490  0.65488906     1.03900
O258        O  0.15004769  0.02657367  0.70887458    -0.84100
O259        O  0.13614398  0.08355282  0.67315410    -0.81100
C260        C  0.10036053  0.06687922  0.65974433     0.99400
O261        O  0.09018517  0.04059865  0.63583203    -0.81200
O262        O  0.08141250  0.47942898  0.59487156    -0.83800
C263        C  0.06935587  0.45079118  0.61762028     1.03900
O264        O  0.09424796  0.45068848  0.63982143    -0.76600
O265        O  0.16311908  0.47646936  0.68138137    -0.76700
C266        C  0.15595873  0.49291322  0.70719682     1.03800
Cr267      Cr  0.18049731  0.06733801  0.67112890     1.93700
Cr268      Cr  0.13004523  0.04001754  0.60278989     1.93200
Cr269      Cr  0.15391232  0.48073600  0.63026738     1.39100
O270        O  0.15693460  0.03086388  0.63695290    -1.21800
O271        O  0.25219766  0.32326033  0.82436207    -0.84100
O272        O  0.26675082  0.39073214  0.86162815    -0.81100
C273        C  0.28165835  0.41868021  0.88426417     0.99400
O274        O  0.31748484  0.43087609  0.89622640    -0.81200
O275        O  0.31521471  0.36543641  0.93319592    -0.83800
C276        C  0.31557115  0.33261251  0.93959378     1.03900
O277        O  0.32382973  0.31456632  0.91571668    -0.76600
O278        O  0.26032099  0.28916272  0.86798124    -0.76800
C279        C  0.23756437  0.29356359  0.84601221     1.03900
O280        O  0.33138362  0.36921940  0.79106357    -0.84100
O281        O  0.34539380  0.44062974  0.82617297    -0.81100
C282        C  0.38104408  0.45965932  0.83982665     0.99400
O283        O  0.39149498  0.44302056  0.86319357    -0.81200
O284        O  0.39447161  0.38465962  0.90397402    -0.83800
C285        C  0.40622728  0.36724598  0.88196720     1.03900
O286        O  0.38167398  0.34378296  0.85892489    -0.76600
O287        O  0.31728927  0.30894765  0.81199540    -0.76700
C288        C  0.32718342  0.33391090  0.78676304     1.03800
Cr289      Cr  0.30114554  0.38010829  0.82844406     1.93700
Cr290      Cr  0.35214070  0.40291809  0.89649855     1.93200
Cr291      Cr  0.32110109  0.31797507  0.86362024     1.39100
O292        O  0.32470612  0.36706030  0.86271105    -1.21800
O293        O  0.08840131  0.36439395  0.89954772    -0.84100
O294        O  0.16168375  0.42387069  0.92422290    -0.81100
C295        C  0.19086130  0.43745239  0.90132815     0.99400
O296        O  0.19618904  0.46527526  0.87916970    -0.81200
O297        O  0.16920389  0.50672435  0.83160001    -0.83800
C298        C  0.15725202  0.48193073  0.80666401     1.03900
O299        O  0.13355612  0.44460224  0.81306173    -0.76600
O300        O  0.07618762  0.37264894  0.84458026    -0.76800
C301        C  0.07717239  0.35039052  0.86925442     1.03900
O302        O  0.04486939  0.40401809  0.92404697    -0.84100
O303        O  0.11466517  0.46379845  0.95154369    -0.81100
C304        C  0.15049595  0.49207538  0.95721554     0.99400
O305        O  0.17436181  0.99423529  0.94075600    -0.81200
O306        O  0.13046710  0.01844303  0.89364503    -0.83800
C307        C  0.10270803  0.01283788  0.87145359     1.03900
O308        O  0.09145508  0.48737971  0.84252927    -0.76600
O309        O  0.03443584  0.41361211  0.86905422    -0.76700
C310        C  0.02152663  0.40355182  0.89989782     1.03800
Cr311      Cr  0.10391100  0.41671108  0.92202256     1.93700
Cr312      Cr  0.16483271  0.49486637  0.88289173     1.93200
Cr313      Cr  0.08679996  0.43094924  0.84516834     1.39100
O314        O  0.11779591  0.44643107  0.88321720    -1.21800
O315        O  0.11507637  0.21171231  0.87332938    -0.84100
O316        O  0.06061124  0.22191386  0.91213866    -0.81100
C317        C  0.04941609  0.23866390  0.88890680     0.99400
O318        O  0.02435111  0.21719995  0.86542738    -0.81200
O319        O  0.48010834  0.15174929  0.81571821    -0.83800
C320        C  0.01373861  0.16527826  0.79337994     1.03900
O321        O  0.04692578  0.16687001  0.80158393    -0.76600
O322        O  0.10863879  0.16323238  0.83773631    -0.76800
C323        C  0.13024920  0.19884123  0.85071890     1.03900
O324        O  0.09097742  0.13247139  0.90458477    -0.84100
O325        O  0.03082734  0.14105506  0.94211847    -0.81100
C326        C  0.49654951  0.14130653  0.94686343     0.99400
O327        O  0.48156334  0.15367363  0.92275437    -0.81200
O328        O  0.45306465  0.09301985  0.87308971    -0.83800
C329        C  0.45372778  0.06895060  0.85045202     1.03900
O330        O  0.48222975  0.08216318  0.82736504    -0.76600
O331        O  0.04663623  0.08694962  0.86810649    -0.76700
C332        C  0.07541213  0.09752523  0.88971095     1.03800
Cr333      Cr  0.07159745  0.17478124  0.90565521     1.93700
Cr334      Cr  0.48645984  0.15321566  0.86920111     1.93200
Cr335      Cr  0.04604857  0.12749548  0.83632712     1.39100
O336        O  0.03606325  0.15244626  0.87098626    -1.21800
C337        C  0.06476135  0.28321741  0.89079441    -0.15200
C338        C  0.06362012  0.30626148  0.86386693    -0.29100
H339        H  0.07820379  0.29767860  0.91566086     0.13900
H340        H  0.05140315  0.29234849  0.83857234     0.14400
C341        C  0.08531427  0.04056459  0.87068242    -0.15200
C342        C  0.09320084  0.07020536  0.89454097    -0.30300
H343        H  0.06455796  0.03592429  0.84909500     0.13900
H344        H  0.11456461  0.07596938  0.91585868     0.14400
C345        C  0.40988403  0.50350883  0.83228389    -0.15200
C346        C  0.42286612  0.02479502  0.85420869    -0.30300
H347        H  0.42160997  0.51391215  0.80594418     0.13900
H348        H  0.41562814  0.01394471  0.88119332     0.14400
C349        C  0.19278194  0.26593833  0.84702398    -0.15200
C350        C  0.17441580  0.22505996  0.84196645    -0.30300
H351        H  0.17419053  0.28005663  0.85306559     0.13900
H352        H  0.19227949  0.21090398  0.83365422     0.14400
C353        C  0.25817479  0.43943621  0.89436874    -0.15200
C354        C  0.21702673  0.41805520  0.89927611    -0.30300
H355        H  0.27456038  0.47282776  0.89598702     0.13900
H356        H  0.20141648  0.38461996  0.90027052     0.14400
C357        C  0.44901303  0.37474393  0.88160213    -0.15200
C358        C  0.47636120  0.39032149  0.90823018    -0.30300
H359        H  0.45870100  0.36727502  0.85711917     0.13900
H360        H  0.96792585  0.39476955  0.93246925     0.14400
C361        C  0.16655332  0.49825398  0.77059764    -0.15200
C362        C  0.15118421  0.47443873  0.74224086    -0.30300
H363        H  0.18378920  0.53154978  0.76737290     0.13900
H364        H  0.12451046  0.94160213  0.75020721     0.14400
C365        C  0.15375492  0.48515984  0.51902622    -0.15200
C366        C  0.16094952  0.51122268  0.99166430    -0.30300
H367        H  0.13935570  0.45201892  0.51525468     0.13900
H368        H  0.14209316  0.02748664  0.00213715     0.14400
C369        C  0.31108784  0.31697149  0.97553076    -0.15200
C370        C  0.31476709  0.33653459  0.50223724    -0.30300
H371        H  0.30807714  0.28678504  0.97928442     0.13900
H372        H  0.30690997  0.36071738  0.49990697     0.14400
C373        C  0.33245094  0.32039934  0.75195851    -0.15200
C374        C  0.31277482  0.32378664  0.72392606    -0.30300
H375        H  0.35113957  0.30570746  0.74969652     0.13900
H376        H  0.29301540  0.33723834  0.72697276     0.14400
C377        C  0.22392454  0.16969393  0.60433474    -0.15200
C378        C  0.26490444  0.18938925  0.59822541    -0.30300
H379        H  0.20740302  0.18667992  0.60282122     0.13900
H380        H  0.28069878  0.17166245  0.59704693     0.14400
C381        C  0.50127155  0.40491628  0.59185342    -0.15200
C382        C  0.02617297  0.41733260  0.61936006    -0.30300
H383        H  0.51130410  0.41872396  0.56603856     0.13900
H384        H  0.01600637  0.40222439  0.64474357     0.14400
C385        C  0.46477626  0.14577404  0.73941168    -0.15200
C386        C  0.50150928  0.16835056  0.75480244    -0.30300
H387        H  0.43782776  0.12781175  0.75592665     0.13900
H388        H  0.03481694  0.18425250  0.73898273     0.14400
C389        C  0.49958549  0.14645908  0.51164404    -0.15200
C390        C  0.47694511  0.13075709  0.98245712    -0.30300
H391        H  0.03428776  0.16539960  0.51165786     0.13900
H392        H  0.44345466  0.11417283  0.98380703     0.14400
C393        C  0.41024112  0.20402659  0.60482872    -0.15200
C394        C  0.41235027  0.22828094  0.63187026    -0.30300
H395        H  0.39659944  0.20562551  0.58016479     0.13900
H396        H  0.42395950  0.22547944  0.65720381     0.14400
C397        C  0.38566155  0.46768011  0.60879178    -0.15200
C398        C  0.39407910  0.44488031  0.63120527    -0.30300
H399        H  0.36735337  0.94940145  0.57800769     0.13900
H400        H  0.41537153  0.45980469  0.65270773     0.14400
C401        C  0.28811643  0.05922630  0.65412909    -0.15200
C402        C  0.30528455  0.03516396  0.65384056    -0.30300
H403        H  0.30754653  0.09246008  0.65180187     0.13900
H404        H  0.28674264  0.00223630  0.65865013     0.14400
C405        C  0.07099222  0.08096740  0.66861984    -0.15200
C406        C  0.05851748  0.09624651  0.64245080    -0.30300
H407        H  0.05912421  0.07791511  0.69512380     0.13900
H408        H  0.07349114  0.10120336  0.61696927     0.14400
O409        O  0.36685291  0.59256955  0.12622792    -0.84100
O410        O  0.42836043  0.65409940  0.08897339    -0.81100
C411        C  0.44001540  0.68241513  0.11155511     0.99400
O412        O  0.46276566  0.68427139  0.13664808    -0.81200
O413        O  0.49265463  0.65663531  0.19074259    -0.83800
C414        C  0.46303690  0.64104373  0.21273749     1.03900
O415        O  0.42897169  0.61139240  0.20377123    -0.76600
O416        O  0.36711101  0.55082543  0.16647805    -0.76800
C417        C  0.34942614  0.56744758  0.15085956     1.03900
O418        O  0.38674741  0.53264153  0.09973533    -0.84100
O419        O  0.45327533  0.59758981  0.06423509    -0.81100
C420        C  0.48632927  0.63109940  0.05920623     0.99400
O421        O  0.00238396  0.65668344  0.08060778    -0.81200
O422        O  0.02463267  0.62273872  0.13625257    -0.83800
C423        C  0.01895134  0.59840521  0.16148298     1.03900
O424        O  0.48435784  0.58152028  0.18278112    -0.76600
O425        O  0.42408439  0.52667539  0.14104830    -0.76700
C426        C  0.39853116  0.51107670  0.11659418     1.03800
Cr427      Cr  0.41147483  0.59482049  0.09771721     1.93700
Cr428      Cr  0.49158893  0.65182983  0.13737470     1.93200
Cr429      Cr  0.42745464  0.57046710  0.17071538     1.39100
O430        O  0.44373038  0.60531183  0.13495238    -1.21800
O431        O  0.40265800  0.77064698  0.09629159    -0.84100
O432        O  0.32702594  0.75239787  0.07132643    -0.81100
C433        C  0.29683342  0.73631814  0.09344082     0.99400
O434        O  0.29033948  0.75823000  0.11535047    -0.81200
O435        O  0.31467630  0.82836610  0.16137133    -0.83800
C436        C  0.32715190  0.81736045  0.18732416     1.03900
O437        O  0.35100410  0.80359174  0.18215956    -0.76600
O438        O  0.40667064  0.78589156  0.15242468    -0.76800
C439        C  0.40999510  0.76543041  0.12750317     1.03900
O440        O  0.44137726  0.85363719  0.07108192    -0.84100
O441        O  0.37070770  0.83976742  0.04255227    -0.81100
C442        C  0.33438240  0.83054238  0.03673728     0.99400
O443        O  0.30768648  0.81104527  0.05953019    -0.81200
O444        O  0.35174184  0.87902767  0.10489791    -0.83800
C445        C  0.38032012  0.90163205  0.12609668     1.03900
O446        O  0.39410042  0.88673171  0.14939837    -0.76600
O447        O  0.45197538  0.86777502  0.12709706    -0.76700
C448        C  0.46491453  0.87374445  0.09605818     1.03800
Cr449      Cr  0.38373165  0.80493852  0.07295904     1.93700
Cr450      Cr  0.32004904  0.81883202  0.11059328     1.93200
Cr451      Cr  0.39812056  0.83463484  0.14989064     1.39100
O452        O  0.36794948  0.81898594  0.11144362    -1.21800
O453        O  0.22911199  0.55439041  0.16347603    -0.84100
O454        O  0.21923362  0.61149032  0.12628381    -0.81100
C455        C  0.20379218  0.62700092  0.10635775     0.99400
O456        O  0.16598619  0.60613728  0.09797990    -0.81200
O457        O  0.15565169  0.53719003  0.06113400    -0.83800
C458        C  0.14922612  0.50140033  0.05527157     1.03900
O459        O  0.16349295  0.98376795  0.08270638    -0.76600
O460        O  0.21012637  0.51141630  0.11909029    -0.76800
C461        C  0.23758183  0.53661248  0.13926399     1.03900
O462        O  0.15619093  0.53394349  0.20326182    -0.84100
O463        O  0.14797449  0.59589718  0.16774812    -0.81100
C464        C  0.11053389  0.58115287  0.15862412     0.99400
O465        O  0.09403018  0.55111345  0.13809877    -0.81200
O466        O  0.09030277  0.98048879  0.09266535    -0.83800
C467        C  0.07855723  0.95066695  0.11395314     1.03900
O468        O  0.10238503  0.95151231  0.13761790    -0.76600
O469        O  0.16342714  0.98021711  0.18732256    -0.76700
C470        C  0.15336682  0.99523739  0.21250826     1.03800
Cr471      Cr  0.18556402  0.57108157  0.16306098     1.93700
Cr472      Cr  0.12583566  0.54430736  0.10082683     1.93200
Cr473      Cr  0.16276777  0.98726269  0.13530438     1.39100
O474        O  0.15425705  0.53367371  0.13181522    -1.21800
O475        O  0.25135576  0.81981989  0.32476869    -0.84100
O476        O  0.26433248  0.88610879  0.36283105    -0.81100
C477        C  0.27877563  0.91396837  0.38554818     0.99400
O478        O  0.31498256  0.92720414  0.39698914    -0.81200
O479        O  0.31471475  0.86245995  0.43394740    -0.83800
C480        C  0.31577827  0.82989780  0.44006108     1.03900
O481        O  0.32385239  0.81205034  0.41583261    -0.76600
O482        O  0.26104180  0.78560772  0.36729830    -0.76800
C483        C  0.23749231  0.79003689  0.34623385     1.03900
O484        O  0.33009041  0.86749416  0.29109740    -0.84100
O485        O  0.34269005  0.93753695  0.32663370    -0.81100
C486        C  0.37858448  0.95714126  0.33970527     0.99400
O487        O  0.38952394  0.94140468  0.36359400    -0.81200
O488        O  0.39423323  0.88389136  0.40496049    -0.83800
C489        C  0.40689080  0.86692284  0.38338383     1.03900
O490        O  0.38305750  0.84345299  0.35991764    -0.76600
O491        O  0.31981164  0.80833636  0.31173790    -0.76700
C492        C  0.32840048  0.83330299  0.28662029     1.03800
Cr493      Cr  0.29943152  0.87691259  0.32909888     1.93700
Cr494      Cr  0.35083341  0.90058864  0.39707231     1.93200
Cr495      Cr  0.32207730  0.81617211  0.36361800     1.39100
O496        O  0.32405837  0.86456029  0.36309527    -1.21800
O497        O  0.08075049  0.85917641  0.40616351    -0.84100
O498        O  0.15739018  0.91664555  0.42884511    -0.81100
C499        C  0.18723577  0.93081182  0.40626352     0.99400
O500        O  0.19323736  0.95925113  0.38439834    -0.81200
O501        O  0.16730964  0.00422290  0.33809712    -0.83800
C502        C  0.15484735  0.98073815  0.31230711     1.03900
O503        O  0.13222373  0.94310700  0.31792013    -0.76600
O504        O  0.07957414  0.86970912  0.34943112    -0.76800
C505        C  0.07547163  0.84636766  0.37512784     1.03900
O506        O  0.04294173  0.90516783  0.43015022    -0.84100
O507        O  0.11464900  0.96122566  0.45820877    -0.81100
C508        C  0.15098403  0.98861139  0.46329693     0.99400
O509        O  0.18143460  0.50033656  0.43313876    -0.81200
O510        O  0.13431873  0.52077699  0.38800855    -0.83800
C511        C  0.10525332  0.51381748  0.36688857     1.03900
O512        O  0.08731595  0.98129226  0.35093293    -0.76600
O513        O  0.03136618  0.90363689  0.37375970    -0.76700
C514        C  0.01876967  0.89936840  0.40482769     1.03800
Cr515      Cr  0.10058677  0.91299385  0.42820928     1.93700
Cr516      Cr  0.16311799  0.98984859  0.38905972     1.93200
Cr517      Cr  0.08542125  0.92599648  0.35089514     1.39100
O518        O  0.11577349  0.94190640  0.38916468    -1.21800
O519        O  0.11503006  0.70814547  0.37734855    -0.84100
O520        O  0.05981422  0.71748196  0.41668590    -0.81100
C521        C  0.04842955  0.73472925  0.39409254     0.99400
O522        O  0.02364889  0.71390425  0.37023873    -0.81200
O523        O  0.48553046  0.65554721  0.32587438    -0.83800
C524        C  0.01682461  0.66650174  0.29712596     1.03900
O525        O  0.04916980  0.66631022  0.30517926    -0.76600
O526        O  0.10863167  0.65978749  0.34161786    -0.76800
C527        C  0.13024095  0.69534747  0.35462701     1.03900
O528        O  0.08938738  0.62774589  0.40683968    -0.84100
O529        O  0.02885063  0.63534020  0.44439331    -0.81100
C530        C  0.50470210  0.64463966  0.45674152     0.99400
O531        O  0.48888793  0.65627337  0.43276610    -0.81200
O532        O  0.45701446  0.59552912  0.38212141    -0.83800
C533        C  0.45580571  0.57216383  0.35785244     1.03900
O534        O  0.48487399  0.58492187  0.33540932    -0.76600
O535        O  0.04450667  0.58325540  0.37005020    -0.76700
C536        C  0.07344262  0.59317348  0.39134007     1.03800
Cr537      Cr  0.07055561  0.67032171  0.40893701     1.93700
Cr538      Cr  0.49246514  0.65584342  0.37913287     1.93200
Cr539      Cr  0.04611657  0.62509982  0.33871795     1.39100
O540        O  0.03563012  0.64921735  0.37372069    -1.21800
C541        C  0.06308436  0.77912677  0.39689150    -0.15200
C542        C  0.06312555  0.80255203  0.36978105    -0.29100
H543        H  0.07493330  0.79311012  0.42224946     0.13900
H544        H  0.05318761  0.78919949  0.34393922     0.14400
C545        C  0.08544304  0.53921924  0.36839745    -0.15200
C546        C  0.09179256  0.56634205  0.39420492    -0.30300
H547        H  0.06462256  0.53527596  0.34702498     0.13900
H548        H  0.11315479  0.57124461  0.41533892     0.14400
C549        C  0.40740176  0.00042392  0.32970954    -0.15200
C550        C  0.42060903  0.52947358  0.35732295    -0.30300
H551        H  0.40940880  0.01083039  0.30280472     0.13900
H552        H  0.40242696  0.51876650  0.38133163     0.14400
C553        C  0.19264344  0.76242872  0.34823300    -0.15200
C554        C  0.17435635  0.72130179  0.34554941    -0.30300
H555        H  0.17394637  0.77678015  0.35283296     0.13900
H556        H  0.19223192  0.70677009  0.33836662     0.14400
C557        C  0.25459533  0.93392882  0.39597457    -0.15200
C558        C  0.21417967  0.91209914  0.40443506    -0.30300
H559        H  0.26982684  0.96731427  0.39461354     0.13900
H560        H  0.19982476  0.87901312  0.40831192     0.14400
C561        C  0.44997798  0.87501248  0.38408503    -0.15200
C562        C  0.47670507  0.89070520  0.41127127    -0.30300
H563        H  0.46040887  0.86775325  0.35991823     0.13900
H564        H  0.96520293  0.89520758  0.43490799     0.14400
C565        C  0.16294872  0.99856788  0.27649423    -0.15200
C566        C  0.14716238  0.97585464  0.24749758    -0.30300
H567        H  0.18040634  0.03194996  0.27408793     0.13900
H568        H  0.13020420  0.44810018  0.24426186     0.14400
C569        C  0.17544745  0.00060671  0.02255542    -0.15200
C570        C  0.16220883  0.01112112  0.49642235    -0.30300
H571        H  0.18626389  0.97893692  0.01784978     0.13900
H572        H  0.18279896  0.54333426  0.49362045     0.14400
C573        C  0.31235778  0.81436309  0.47605851    -0.15200
C574        C  0.32356419  0.84126574  0.00322888    -0.30300
H575        H  0.30822168  0.78369394  0.47960416     0.13900
H576        H  0.33120369  0.87300884  0.99898072     0.14400
C577        C  0.33564928  0.82125910  0.25173050    -0.15200
C578        C  0.31751624  0.82556344  0.22296737    -0.30300
H579        H  0.35462861  0.80684269  0.24994426     0.13900
H580        H  0.29725564  0.83850973  0.22541672     0.14400
C581        C  0.22887651  0.67122167  0.09623307    -0.15200
C582        C  0.27045218  0.69081106  0.09478508    -0.30300
H583        H  0.21305736  0.68862995  0.09229651     0.13900
H584        H  0.28606903  0.67294434  0.09631999     0.14400
C585        C  0.50870049  0.90561964  0.09002104    -0.15200
C586        C  0.03647356  0.91490484  0.11292864    -0.30300
H587        H  0.51781482  0.92247015  0.06536642     0.13900
H588        H  0.02683103  0.89585171  0.13646613     0.14400
C589        C  0.46857138  0.65259009  0.25036977    -0.15200
C590        C  0.50606711  0.67271221  0.26501456    -0.30300
H591        H  0.44164444  0.63674357  0.26732731     0.13900
H592        H  0.03896296  0.68443217  0.24318327     0.14400
C593        C  0.50640072  0.64076934  0.02361503    -0.15200
C594        C  0.48573183  0.63460336  0.49274993    -0.30300
H595        H  0.03919874  0.65632171  0.01875439     0.13900
H596        H  0.45240896  0.62077711  0.49448736     0.14400
C597        C  0.42727852  0.71354701  0.10729934    -0.15200
C598        C  0.42365776  0.73505035  0.13409294    -0.30300
H599        H  0.41830552  0.71711789  0.08101188     0.13900
H600        H  0.43101105  0.73045525  0.16067518     0.14400
C601        C  0.38742931  0.96645798  0.10131780    -0.15200
C602        C  0.39827979  0.94644248  0.12471849    -0.30300
H603        H  0.35948830  0.45234564  0.08811627     0.13900
H604        H  0.42152791  0.96366949  0.14436493     0.14400
C605        C  0.27984618  0.54568217  0.13364411    -0.15200
C606        C  0.30698430  0.55579999  0.15968192    -0.30300
H607        H  0.28891209  0.54342568  0.10698298     0.13900
H608        H  0.29781092  0.55462913  0.18689164     0.14400
C609        C  0.08650109  0.60133640  0.16791071    -0.15200
C610        C  0.04517511  0.57979369  0.16537143    -0.30300
H611        H  0.10244514  0.63438988  0.17214468     0.13900
H612        H  0.02956247  0.54644196  0.16313932     0.14400
O613        O  0.36845488  0.59117354  0.62729144    -0.84100
O614        O  0.42864317  0.65450625  0.59070807    -0.81100
C615        C  0.44022332  0.68243050  0.61372404     0.99400
O616        O  0.46394882  0.68462812  0.63811511    -0.81200
O617        O  0.49506964  0.65638468  0.69064079    -0.83800
C618        C  0.46529792  0.64035731  0.71253801     1.03900
O619        O  0.43144787  0.61057164  0.70333247    -0.76600
O620        O  0.37017824  0.54898262  0.66620423    -0.76800
C621        C  0.35151406  0.56509079  0.65136789     1.03900
O622        O  0.39044083  0.53334967  0.59902712    -0.84100
O623        O  0.45521875  0.60003472  0.56356226    -0.81100
C624        C  0.48781309  0.63396903  0.55860065     0.99400
O625        O  0.99634607  0.65946510  0.57275660    -0.81200
O626        O  0.02545123  0.62719489  0.62243160    -0.83800
C627        C  0.02535356  0.60420656  0.64671113     1.03900
O628        O  0.48866031  0.58337416  0.68118076    -0.76600
O629        O  0.42913645  0.52812271  0.63948285    -0.76700
C630        C  0.40317185  0.51222196  0.61539250     1.03800
Cr631      Cr  0.41333893  0.59537543  0.59789904     1.93700
Cr632      Cr  0.49353632  0.65288452  0.63705635     1.93200
Cr633      Cr  0.43105326  0.57062359  0.66987123     1.39100
O634        O  0.44611373  0.60597592  0.63459582    -1.21800
O635        O  0.40019049  0.76820254  0.59925934    -0.84100
O636        O  0.32492572  0.74935234  0.57336852    -0.81100
C637        C  0.29466268  0.73362121  0.59543450     0.99400
O638        O  0.28780759  0.75605996  0.61642861    -0.81200
O639        O  0.31159538  0.82623022  0.66164788    -0.83800
C640        C  0.32338614  0.81468674  0.68774407     1.03900
O641        O  0.34790436  0.80158230  0.68296743    -0.76600
O642        O  0.40662947  0.78642867  0.65471406    -0.76800
C643        C  0.40940336  0.76499211  0.63032635     1.03900
O644        O  0.43981581  0.85043987  0.57317648    -0.84100
O645        O  0.36888246  0.83609348  0.54307191    -0.81100
C646        C  0.33273316  0.82756338  0.53705692     0.99400
O647        O  0.30578684  0.80848903  0.55981033    -0.81200
O648        O  0.34932593  0.87713607  0.60473259    -0.83800
C649        C  0.37710971  0.89994251  0.62645678     1.03900
O650        O  0.38988361  0.88498622  0.65054098    -0.76600
O651        O  0.44923986  0.86796351  0.62868154    -0.76700
C652        C  0.46286287  0.87209249  0.59795269     1.03800
Cr653      Cr  0.38168141  0.80199748  0.57482742     1.93700
Cr654      Cr  0.31763929  0.81672984  0.61098694     1.93200
Cr655      Cr  0.39552166  0.83371611  0.65131532     1.39100
O656        O  0.36565723  0.81704219  0.61263612    -1.21800
O657        O  0.22937426  0.55100686  0.66489854    -0.84100
O658        O  0.21761628  0.60835713  0.63023981    -0.81100
C659        C  0.20256014  0.62312090  0.60911283     0.99400
O660        O  0.16561217  0.60115685  0.59882375    -0.81200
O661        O  0.16013346  0.53440908  0.56118451    -0.83800
C662        C  0.15457448  0.49903196  0.55475733     1.03900
O663        O  0.15909689  0.98015404  0.58408050    -0.76600
O664        O  0.21299832  0.50897471  0.61990213    -0.76800
C665        C  0.23942470  0.53469582  0.64045745     1.03900
O666        O  0.15372057  0.52518303  0.70318663    -0.84100
O667        O  0.14251387  0.58552035  0.67023626    -0.81100
C668        C  0.10591659  0.57059803  0.65863425     0.99400
O669        O  0.09248993  0.54309498  0.63563758    -0.81200
O670        O  0.08804032  0.98001286  0.59442666    -0.83800
C671        C  0.07566344  0.95041304  0.61606463     1.03900
O672        O  0.09932240  0.95089000  0.63974975    -0.76600
O673        O  0.16155010  0.97854439  0.68827585    -0.76700
C674        C  0.15226515  0.99430089  0.71332941     1.03800
Cr675      Cr  0.18345440  0.56470691  0.66477550     1.93700
Cr676      Cr  0.12736399  0.53896526  0.59986960     1.93200
Cr677      Cr  0.15990189  0.98495188  0.63640593     1.39100
O678        O  0.15494538  0.52837055  0.63184549    -1.21800
O679        O  0.24597811  0.81351646  0.82849041    -0.84100
O680        O  0.26029252  0.88197011  0.86555343    -0.81100
C681        C  0.27569136  0.91108572  0.88710912     0.99400
O682        O  0.31262096  0.92529872  0.89703391    -0.81200
O683        O  0.31390612  0.86139812  0.93366629    -0.83800
C684        C  0.31645697  0.82977628  0.94027203     1.03900
O685        O  0.32594928  0.81260059  0.91646228    -0.76600
O686        O  0.26146913  0.78406019  0.87132493    -0.76800
C687        C  0.23532696  0.78518918  0.85134765     1.03900
O688        O  0.32282247  0.86243157  0.79121618    -0.84100
O689        O  0.33722917  0.93368437  0.82630230    -0.81100
C690        C  0.37375496  0.95428608  0.83848709     0.99400
O691        O  0.38605837  0.93934948  0.86197233    -0.81200
O692        O  0.39340137  0.88347035  0.90337516    -0.83800
C693        C  0.40592541  0.86654618  0.88154619     1.03900
O694        O  0.38192653  0.84321665  0.85816593    -0.76600
O695        O  0.31616093  0.80501877  0.81273748    -0.76700
C696        C  0.32246092  0.82882704  0.78712867     1.03800
Cr697      Cr  0.29401055  0.87231907  0.83045059     1.93700
Cr698      Cr  0.34899423  0.89921109  0.89640445     1.93200
Cr699      Cr  0.32138911  0.81490431  0.86437717     1.39100
O700        O  0.32159935  0.86229601  0.86334217    -1.21800
O701        O  0.07846988  0.85930704  0.90550949    -0.84100
O702        O  0.15450782  0.91575424  0.92952260    -0.81100
C703        C  0.18475114  0.92941394  0.90737169     0.99400
O704        O  0.19150418  0.95791293  0.88540692    -0.81200
O705        O  0.16775148  0.00294581  0.83812204    -0.83800
C706        C  0.15535475  0.97910316  0.81251022     1.03900
O707        O  0.13150633  0.94165866  0.81820267    -0.76600
O708        O  0.07426282  0.86902570  0.84903723    -0.76800
C709        C  0.07066942  0.84582884  0.87472461     1.03900
O710        O  0.04046732  0.90491549  0.92858131    -0.84100
O711        O  0.11118877  0.96111561  0.95706533    -0.81100
C712        C  0.14749037  0.98765755  0.96327229     0.99400
O713        O  0.17724220  0.50184587  0.93389276    -0.81200
O714        O  0.13202229  0.52272924  0.88723893    -0.83800
C715        C  0.10416727  0.51650051  0.86506816     1.03900
O716        O  0.08931352  0.98377024  0.84868471    -0.76600
O717        O  0.03069124  0.90820238  0.87226657    -0.76700
C718        C  0.01738936  0.90180478  0.90316887     1.03800
Cr719      Cr  0.09796229  0.91278632  0.92755186     1.93700
Cr720      Cr  0.16210117  0.98923716  0.88928695     1.93200
Cr721      Cr  0.08428018  0.92708591  0.84995235     1.39100
O722        O  0.11412647  0.94186204  0.88862877    -1.21800
O723        O  0.10856266  0.71187250  0.87423358    -0.84100
O724        O  0.05524931  0.71824676  0.91755162    -0.81100
C725        C  0.04081207  0.73390969  0.89616898     0.99400
O726        O  0.01231311  0.71132965  0.87533850    -0.81200
O727        O  0.48600569  0.65522811  0.82627592    -0.83800
C728        C  0.99172534  0.65934102  0.80262364     1.03900
O729        O  0.02797683  0.66631319  0.80600041    -0.76600
O730        O  0.09802866  0.66944334  0.83095826    -0.76800
C731        C  0.12065352  0.70315616  0.84651659     1.03900
O732        O  0.08897617  0.63276931  0.90190805    -0.84100
O733        O  0.03124128  0.63732177  0.94609811    -0.81100
C734        C  0.50384336  0.64391369  0.95745521     0.99400
O735        O  0.48848969  0.65620283  0.93354115    -0.81200
O736        O  0.45763483  0.59570465  0.88330601    -0.83800
C737        C  0.45657015  0.57238297  0.85914958     1.03900
O738        O  0.48512485  0.58541445  0.83623393    -0.76600
O739        O  0.04714882  0.58985853  0.86229179    -0.76700
C740        C  0.07538491  0.59977085  0.88439656     1.03800
Cr741      Cr  0.06783222  0.67286650  0.90754416     1.93700
Cr742      Cr  0.49240700  0.65579165  0.87978159     1.93200
Cr743      Cr  0.03690012  0.62880433  0.83628660     1.39100
O744        O  0.02915490  0.65009925  0.87500649    -1.21800
C745        C  0.05675704  0.77860357  0.89728953    -0.15200
C746        C  0.05585009  0.80131505  0.86998405    -0.29100
H747        H  0.07142202  0.79367387  0.92164288     0.13900
H748        H  0.04332063  0.78701247  0.84488140     0.14400
C749        C  0.08610734  0.54360984  0.86421168    -0.15200
C750        C  0.09394888  0.57309506  0.88813537    -0.30300
H751        H  0.06493110  0.53857817  0.84284564     0.13900
H752        H  0.11545433  0.57883823  0.90936146     0.14400
C753        C  0.40209574  0.99791282  0.82835224    -0.15200
C754        C  0.42262058  0.52942074  0.85967612    -0.30300
H755        H  0.40500806  0.00797412  0.80125795     0.13900
H756        H  0.40781754  0.51786772  0.88504070     0.14400
C757        C  0.19177145  0.75473969  0.85808140    -0.15200
C758        C  0.16296856  0.73261738  0.83396284    -0.30300
H759        H  0.18361422  0.74841609  0.88568876     0.13900
H760        H  0.17084177  0.73490912  0.80631592     0.14400
C761        C  0.25180592  0.93143589  0.89766227    -0.15200
C762        C  0.21127668  0.91011539  0.90605074    -0.30300
H763        H  0.26741135  0.96484234  0.89632273     0.13900
H764        H  0.19645469  0.87700113  0.90992477     0.14400
C765        C  0.44870947  0.87393226  0.88219047    -0.15200
C766        C  0.47553183  0.89009017  0.90916014    -0.30300
H767        H  0.45877710  0.86567050  0.85832541     0.13900
H768        H  0.96388568  0.89763297  0.93301636     0.14400
C769        C  0.16477662  0.99655099  0.77664206    -0.15200
C770        C  0.14496408  0.97468770  0.74819979    -0.30300
H771        H  0.18618550  0.02940745  0.77383684     0.13900
H772        H  0.13548919  0.44110270  0.74467292     0.14400
C773        C  0.17194348  0.99557719  0.52407328    -0.15200
C774        C  0.15748488  0.01000925  0.99650563    -0.30300
H775        H  0.17614051  0.96909642  0.52045520     0.13900
H776        H  0.17927134  0.54447897  0.99408758     0.14400
C777        C  0.31333006  0.81516688  0.97639061    -0.15200
C778        C  0.32249488  0.83950440  0.50364875    -0.30300
H779        H  0.30946231  0.78468968  0.98067126     0.13900
H780        H  0.33002217  0.87131421  0.50027602     0.14400
C781        C  0.32941438  0.81645590  0.75226929    -0.15200
C782        C  0.31235969  0.82175609  0.72325103    -0.30300
H783        H  0.34817210  0.80178702  0.75062090     0.13900
H784        H  0.29231065  0.83497105  0.72543548     0.14400
C785        C  0.22716060  0.66751931  0.59900549    -0.15200
C786        C  0.26882954  0.68797472  0.59800243    -0.30300
H787        H  0.21077753  0.68416266  0.59396861     0.13900
H788        H  0.28499796  0.67071833  0.60051359     0.14400
C789        C  0.50695049  0.90364726  0.59204014    -0.15200
C790        C  0.03314890  0.91529707  0.61519132    -0.30300
H791        H  0.51684366  0.91846184  0.56656762     0.13900
H792        H  0.02285806  0.89685169  0.63904565     0.14400
C793        C  0.47024721  0.65152472  0.75027406    -0.15200
C794        C  0.50743376  0.67202704  0.76539525    -0.30300
H795        H  0.44308028  0.63540745  0.76692568     0.13900
H796        H  0.94202216  0.64248232  0.76423978     0.14400
C797        C  0.50781632  0.64410436  0.52297051    -0.15200
C798        C  0.48455859  0.63315682  0.99336736    -0.30300
H799        H  0.03266135  0.65175522  0.51351142     0.13900
H800        H  0.45139389  0.62057965  0.99508846     0.14400
C801        C  0.42618798  0.71270527  0.61047924    -0.15200
C802        C  0.42466237  0.73578630  0.63703621    -0.30300
H803        H  0.41438357  0.71426766  0.58486106     0.13900
H804        H  0.43497270  0.73350505  0.66311840     0.14400
C805        C  0.38847600  0.96572793  0.59922689    -0.15200
C806        C  0.39523893  0.94496907  0.62501954    -0.30300
H807        H  0.36417341  0.45327092  0.58735415     0.13900
H808        H  0.41554459  0.96187636  0.64656945     0.14400
C809        C  0.28241932  0.54640336  0.63457405    -0.15200
C810        C  0.30865340  0.55196579  0.66050034    -0.30300
H811        H  0.29251970  0.54899973  0.60745133     0.13900
H812        H  0.29828861  0.54546559  0.68759442     0.14400
C813        C  0.07872572  0.58722262  0.66861404    -0.15200
C814        C  0.05451399  0.58895858  0.64329974    -0.30300
H815        H  0.07970715  0.59927083  0.69464935     0.13900
H816        H  0.05783739  0.58064957  0.61667682     0.14400
O817        O  0.86737488  0.08695323  0.12439732    -0.84100
O818        O  0.92046402  0.15147584  0.08441229    -0.81100
C819        C  0.93155480  0.17958080  0.10723903     0.99400
O820        O  0.95645726  0.18309875  0.13094019    -0.81200
O821        O  0.99532545  0.16019489  0.18042501    -0.83800
C822        C  0.96740496  0.14151808  0.20350011     1.03900
O823        O  0.93493854  0.10918605  0.19562867    -0.76600
O824        O  0.87444598  0.04435751  0.15915174    -0.76800
C825        C  0.85276942  0.05892452  0.14712446     1.03900
O826        O  0.89226070  0.03245114  0.09266810    -0.84100
O827        O  0.95135744  0.10129316  0.05487838    -0.81100
C828        C  0.98233014  0.13632722  0.04919444     0.99400
O829        O  0.49324578  0.15975335  0.07280908    -0.81200
O830        O  0.52216244  0.12720750  0.12215561    -0.83800
C831        C  0.52209888  0.10263701  0.14477668     1.03900
O832        O  0.99754048  0.09060731  0.16890559    -0.76600
O833        O  0.93754003  0.03167345  0.12854267    -0.76700
C834        C  0.90875374  0.01346461  0.10699816     1.03800
Cr835      Cr  0.91062367  0.09378028  0.09153502     1.93700
Cr836      Cr  0.99066076  0.15646878  0.12714608     1.93200
Cr837      Cr  0.93693249  0.07178291  0.16061926     1.39100
O838        O  0.94641780  0.10704630  0.12608063    -1.21800
O839        O  0.89466504  0.26935262  0.09657500    -0.84100
O840        O  0.81859513  0.25139460  0.07310502    -0.81100
C841        C  0.78811285  0.23484072  0.09489565     0.99400
O842        O  0.78116041  0.25613715  0.11710078    -0.81200
O843        O  0.80488549  0.32221662  0.16627574    -0.83800
C844        C  0.81642354  0.30841422  0.19089233     1.03900
O845        O  0.83998099  0.29465903  0.18410722    -0.76600
O846        O  0.89828283  0.28155722  0.15313836    -0.76800
C847        C  0.90192591  0.26250605  0.12724029     1.03900
O848        O  0.93180104  0.35390523  0.07519839    -0.84100
O849        O  0.86100237  0.33887555  0.04638293    -0.81100
C850        C  0.82461216  0.32950537  0.04066144     0.99400
O851        O  0.79836629  0.31220024  0.06418480    -0.81200
O852        O  0.84313791  0.37757582  0.11241340    -0.83800
C853        C  0.87031862  0.39803855  0.13545770     1.03900
O854        O  0.88270294  0.38068382  0.15759629    -0.76600
O855        O  0.94149509  0.36574066  0.13170918    -0.76700
C856        C  0.95447343  0.37396674  0.10067863     1.03800
Cr857      Cr  0.87482089  0.30414464  0.07565361     1.93700
Cr858      Cr  0.81096077  0.31680313  0.11504905     1.93200
Cr859      Cr  0.88796830  0.32939518  0.15376456     1.39100
O860        O  0.85860193  0.31641429  0.11490383    -1.21800
O861        O  0.73087814  0.06197085  0.17613386    -0.84100
O862        O  0.71449465  0.11379191  0.13879172    -0.81100
C863        C  0.69916034  0.12648244  0.11605082     0.99400
O864        O  0.66337430  0.10273070  0.10431792    -0.81200
O865        O  0.66856754  0.04202843  0.06684190    -0.83800
C866        C  0.66962015  0.00974787  0.05985687     1.03900
O867        O  0.64272229  0.47627815  0.08160719    -0.76600
O868        O  0.72437446  0.02063571  0.13257496    -0.76800
C869        C  0.74635895  0.04759414  0.15474541     1.03900
O870        O  0.65112769  0.02624024  0.20891436    -0.84100
O871        O  0.63508210  0.08256531  0.17403829    -0.81100
C872        C  0.59944861  0.06556398  0.16030256     0.99400
O873        O  0.58989774  0.03925459  0.13650446    -0.81200
O874        O  0.57993619  0.48504667  0.09701584    -0.83800
C875        C  0.56801061  0.45639844  0.11968965     1.03900
O876        O  0.59278866  0.45685018  0.14233198    -0.76600
O877        O  0.66179769  0.48351724  0.18372989    -0.76700
C878        C  0.65525385  0.50107909  0.20902050     1.03800
Cr879      Cr  0.68076561  0.06810783  0.17176812     1.93700
Cr880      Cr  0.63050825  0.04038455  0.10338802     1.93200
Cr881      Cr  0.65254869  0.48597200  0.13256961     1.39100
O882        O  0.65833556  0.03205157  0.13720312    -1.21800
O883        O  0.75164494  0.31298236  0.33124178    -0.84100
O884        O  0.76529951  0.38326496  0.36479892    -0.81100
C885        C  0.78115564  0.41410198  0.38453733     0.99400
O886        O  0.81832421  0.42914244  0.39429293    -0.81200
O887        O  0.82277429  0.36826615  0.43417032    -0.83800
C888        C  0.82725526  0.33790635  0.44156292     1.03900
O889        O  0.83663483  0.32039924  0.41802015    -0.76600
O890        O  0.76838654  0.28790429  0.37669864    -0.76800
C891        C  0.74182114  0.28649581  0.35573168     1.03900
O892        O  0.82725222  0.36124462  0.29224334    -0.84100
O893        O  0.84033463  0.43426121  0.32387704    -0.81100
C894        C  0.87717687  0.45576701  0.33520958     0.99400
O895        O  0.89074363  0.44138928  0.35800244    -0.81200
O896        O  0.90084273  0.38907165  0.40069406    -0.83800
C897        C  0.91218584  0.37116057  0.37874023     1.03900
O898        O  0.88705097  0.34649921  0.35671336    -0.76600
O899        O  0.81804658  0.30373595  0.31563800    -0.76700
C900        C  0.82446724  0.32642404  0.28920853     1.03800
Cr901      Cr  0.79851016  0.37254463  0.33039094     1.93700
Cr902      Cr  0.85565081  0.40388695  0.39460367     1.93200
Cr903      Cr  0.82750543  0.31810407  0.36643061     1.39100
O904        O  0.82716543  0.36498159  0.36357904    -1.21800
O905        O  0.58275449  0.36122290  0.39846009    -0.84100
O906        O  0.65896691  0.41718120  0.42272008    -0.81100
C907        C  0.68924896  0.43198744  0.40068105     0.99400
O908        O  0.69556161  0.46088115  0.37919047    -0.81200
O909        O  0.67046145  0.50747586  0.33403746    -0.83800
C910        C  0.65792355  0.48462635  0.30790923     1.03900
O911        O  0.63434176  0.44696946  0.31274851    -0.76600
O912        O  0.57973421  0.37290647  0.34226053    -0.76800
C913        C  0.57616635  0.34898037  0.36728497     1.03900
O914        O  0.54519642  0.40595174  0.42482239    -0.84100
O915        O  0.61666996  0.46060616  0.45353366    -0.81100
C916        C  0.65292776  0.48820725  0.45864587     0.99400
O917        O  0.67836250  0.99976696  0.44020683    -0.81200
O918        O  0.63139003  0.02017500  0.39352674    -0.83800
C919        C  0.60292119  0.01312712  0.37163808     1.03900
O920        O  0.59069831  0.48570776  0.34675017    -0.76600
O921        O  0.53380856  0.40837673  0.36874775    -0.76700
C922        C  0.52127021  0.40204023  0.39990429     1.03800
Cr923      Cr  0.60254385  0.41379061  0.42217408     1.93700
Cr924      Cr  0.66555597  0.49172619  0.38452203     1.93200
Cr925      Cr  0.58747352  0.42991372  0.34551146     1.39100
O926        O  0.61790757  0.44408001  0.38384059    -1.21800
O927        O  0.61475901  0.21188308  0.37313446    -0.84100
O928        O  0.55865652  0.22065018  0.41021705    -0.81100
C929        C  0.54764104  0.23725835  0.38667684     0.99400
O930        O  0.52240806  0.21568024  0.36328259    -0.81200
O931        O  0.98826254  0.15380521  0.31557281    -0.83800
C932        C  0.51096169  0.16434283  0.29188067     1.03900
O933        O  0.54488790  0.16773348  0.29977561    -0.76600
O934        O  0.60817350  0.16708923  0.33317733    -0.76800
C935        C  0.62929942  0.20169891  0.34793003     1.03900
O936        O  0.59049290  0.13259365  0.40305613    -0.84100
O937        O  0.52904680  0.13941521  0.43996896    -0.81100
C938        C  0.99947129  0.14456839  0.44711319     0.99400
O939        O  0.98565160  0.15697506  0.42212175    -0.81200
O940        O  0.95721294  0.09555450  0.37297005    -0.83800
C941        C  0.95736923  0.07114264  0.35044595     1.03900
O942        O  0.98677292  0.08328267  0.32836266    -0.76600
O943        O  0.54946559  0.08871517  0.36383074    -0.76700
C944        C  0.57647247  0.09857218  0.38700166     1.03800
Cr945      Cr  0.57043185  0.17407747  0.40413968     1.93700
Cr946      Cr  0.99226202  0.15549004  0.36888659     1.93200
Cr947      Cr  0.54620496  0.12879587  0.33347229     1.39100
O948        O  0.53554351  0.15220486  0.36895041    -1.21800
C949        C  0.56311460  0.28172979  0.38843929    -0.15200
C950        C  0.56293534  0.30505500  0.36135978    -0.29100
H951        H  0.57589924  0.29595069  0.41353629     0.13900
H952        H  0.55200343  0.29163129  0.33568959     0.14400
C953        C  0.58530906  0.04050514  0.36996013    -0.15200
C954        C  0.59354762  0.07093440  0.39301561    -0.30300
H955        H  0.56455105  0.03522562  0.34822127     0.13900
H956        H  0.61462375  0.07696592  0.41462763     0.14400
C957        C  0.90439258  0.49990316  0.32589688    -0.15200
C958        C  0.92387091  0.02796421  0.35251594    -0.30300
H959        H  0.90797885  0.51070712  0.29898697     0.13900
H960        H  0.90924427  0.01801240  0.37814347     0.14400
C961        C  0.69885388  0.25471282  0.36203621    -0.15200
C962        C  0.67222774  0.23084760  0.33725291    -0.30300
H963        H  0.68923190  0.24935317  0.38939239     0.13900
H964        H  0.68200025  0.23255699  0.31017435     0.14400
C965        C  0.75709650  0.43477481  0.39328214    -0.15200
C966        C  0.71607511  0.41316568  0.39929257    -0.30300
H967        H  0.77291278  0.46821642  0.39285042     0.13900
H968        H  0.70116214  0.37992998  0.40238391     0.14400
C969        C  0.95466822  0.37856650  0.37780320    -0.15200
C970        C  0.98161804  0.39306273  0.40460167    -0.30300
H971        H  0.96408860  0.37112191  0.35316466     0.13900
H972        H  0.46828892  0.39754252  0.43079446     0.14400
C973        C  0.66734124  0.50325624  0.27251426    -0.15200
C974        C  0.64823172  0.48164621  0.24386252    -0.30300
H975        H  0.68819260  0.53627717  0.27024251     0.13900
H976        H  0.63227282  0.94215178  0.24969288     0.14400
C977        C  0.65110007  0.48590470  0.02162598    -0.15200
C978        C  0.66446409  0.50881347  0.49243766    -0.30300
H979        H  0.63657855  0.45260109  0.01907790     0.13900
H980        H  0.66077716  0.04001052  0.50081554     0.14400
C981        C  0.82697779  0.32499740  0.47777299    -0.15200
C982        C  0.81295573  0.33618229  0.00589566    -0.30300
H983        H  0.83823525  0.30355415  0.48216176     0.13900
H984        H  0.80110792  0.35720571  0.00243750     0.14400
C985        C  0.82752268  0.31118455  0.25458019    -0.15200
C986        C  0.80765693  0.31522824  0.22705454    -0.30300
H987        H  0.84613183  0.29647110  0.25174085     0.13900
H988        H  0.78810726  0.32882664  0.23078086     0.14400
C989        C  0.72185243  0.17051947  0.10588583    -0.15200
C990        C  0.76160976  0.18938945  0.09552248    -0.30300
H991        H  0.70648779  0.18838156  0.10960533     0.13900
H992        H  0.77596013  0.17099007  0.08963779     0.14400
C993        C  0.99733905  0.40823230  0.09508230    -0.15200
C994        C  0.52512591  0.42210236  0.12059761    -0.30300
H995        H  0.00734308  0.42135277  0.06904876     0.13900
H996        H  0.51393791  0.40845258  0.14632112     0.14400
C997        C  0.97368396  0.15326143  0.24091133    -0.15200
C998        C  0.01120159  0.16990401  0.25545536    -0.30300
H999        H  0.94659830  0.13954471  0.25784296     0.13900
H1000       H  0.53145728  0.18315830  0.23757458     0.14400
C1001       C  0.00200868  0.14663962  0.01360246    -0.15200
C1002       C  0.97922387  0.13529086  0.48243758    -0.30300
H1003       H  0.53202042  0.16348108  0.01130768     0.13900
H1004       H  0.94576019  0.12019789  0.48348251     0.14400
C1005       C  0.91630533  0.20908823  0.10480653    -0.15200
C1006       C  0.91588699  0.23197768  0.13203126    -0.30300
H1007       H  0.90400955  0.21123241  0.07959888     0.13900
H1008       H  0.92643543  0.22866149  0.15770927     0.14400
C1009       C  0.88288368  0.46631675  0.11390427    -0.15200
C1010       C  0.88797263  0.44290088  0.13809026    -0.30300
H1011       H  0.87027325  0.95323454  0.08055385     0.13900
H1012       H  0.90678823  0.45734381  0.16105533     0.14400
C1013       C  0.79116912  0.06481723  0.15439785    -0.15200
C1014       C  0.80908018  0.04149865  0.15704503    -0.30300
H1015       H  0.80998532  0.09780635  0.14990980     0.13900
H1016       H  0.79092208  0.00903404  0.16383643     0.14400
C1017       C  0.56960948  0.07929179  0.16880174    -0.15200
C1018       C  0.55413196  0.09078144  0.14204093    -0.30300
H1019       H  0.56150841  0.08119179  0.19580287     0.13900
H1020       H  0.56603995  0.09188622  0.11575778     0.14400
O1021       O  0.86575084  0.08639852  0.62370286    -0.84100
O1022       O  0.91915131  0.15176206  0.58468344    -0.81100
C1023       C  0.93040100  0.17927699  0.60807198     0.99400
O1024       O  0.95567223  0.18243775  0.63129620    -0.81200
O1025       O  0.99349778  0.15751279  0.68006492    -0.83800
C1026       C  0.96523721  0.13833592  0.70290873     1.03900
O1027       O  0.93302582  0.10594050  0.69456449    -0.76600
O1028       O  0.87267184  0.04241053  0.65674171    -0.76800
C1029       C  0.85106990  0.05754018  0.64567524     1.03900
O1030       O  0.89009387  0.03246355  0.59028443    -0.84100
O1031       O  0.94929468  0.10178231  0.55345291    -0.81100
C1032       C  0.98074177  0.13656248  0.54821181     0.99400
O1033       O  0.49278619  0.16118388  0.57207160    -0.81200
O1034       O  0.52315738  0.13014290  0.62178950    -0.83800
C1035       C  0.52372048  0.10571520  0.64423136     1.03900
O1036       O  0.99577840  0.08865840  0.66678496    -0.76600
O1037       O  0.93650565  0.03163388  0.62459786    -0.76700
C1038       C  0.90703814  0.01345480  0.60369723     1.03800
Cr1039     Cr  0.90881270  0.09383630  0.59039833     1.93700
Cr1040     Cr  0.98922564  0.15520237  0.62644859     1.93200
Cr1041     Cr  0.93524377  0.06992375  0.65832881     1.39100
O1042       O  0.94463280  0.10618418  0.62479596    -1.21800
O1043       O  0.89018091  0.26564143  0.59821569    -0.84100
O1044       O  0.81700871  0.25203477  0.57268786    -0.81100
C1045       C  0.78716355  0.23600979  0.59492060     0.99400
O1046       O  0.78122107  0.25796209  0.61708718    -0.81200
O1047       O  0.80687679  0.32400843  0.66614792    -0.83800
C1048       C  0.81882570  0.31062002  0.69088978     1.03900
O1049       O  0.84331889  0.29785843  0.68438927    -0.76600
O1050       O  0.90265321  0.28576244  0.65307911    -0.76800
C1051       C  0.90194416  0.26289427  0.62835984     1.03900
O1052       O  0.93326977  0.34916545  0.57457471    -0.84100
O1053       O  0.86362945  0.33893433  0.54585225    -0.81100
C1054       C  0.82794166  0.33205262  0.54013260     0.99400
O1055       O  0.80108801  0.31545900  0.56346633    -0.81200
O1056       O  0.84495421  0.37981401  0.61177519    -0.83800
C1057       C  0.87203532  0.40057552  0.63470652     1.03900
O1058       O  0.88438439  0.38333558  0.65691470    -0.76600
O1059       O  0.94264913  0.36886296  0.62958247    -0.76700
C1060       C  0.95598398  0.37217676  0.59883448     1.03800
Cr1061     Cr  0.87444476  0.30260313  0.57577766     1.93700
Cr1062     Cr  0.81249391  0.31893172  0.61468082     1.93200
Cr1063     Cr  0.89034742  0.33244467  0.65301828     1.39100
O1064       O  0.85978946  0.31766858  0.61459022    -1.21800
O1065       O  0.73083509  0.06407998  0.67558917    -0.84100
O1066       O  0.71363728  0.11465268  0.63716605    -0.81100
C1067       C  0.69792996  0.12664404  0.61417613     0.99400
O1068       O  0.66224949  0.10218873  0.60257897    -0.81200
O1069       O  0.66707284  0.03953105  0.56733608    -0.83800
C1070       C  0.66717984  0.00654159  0.56133096     1.03900
O1071       O  0.64836084  0.47484454  0.58124655    -0.76600
O1072       O  0.72274022  0.01951782  0.63431220    -0.76800
C1073       C  0.74540720  0.04764191  0.65542893     1.03900
O1074       O  0.65198147  0.02986950  0.70971319    -0.84100
O1075       O  0.63477606  0.08413337  0.67327453    -0.81100
C1076       C  0.59892639  0.06658865  0.65992958     0.99400
O1077       O  0.58919718  0.04017482  0.63619118    -0.81200
O1078       O  0.58311056  0.48166592  0.59550537    -0.83800
C1079       C  0.57094224  0.45300549  0.61819303     1.03900
O1080       O  0.59565926  0.45367775  0.64099489    -0.76600
O1081       O  0.66310759  0.48095169  0.68424049    -0.76700
C1082       C  0.65656201  0.49885410  0.70927318     1.03800
Cr1083     Cr  0.68062718  0.07000317  0.67125250     1.93700
Cr1084     Cr  0.62935454  0.03971443  0.60342728     1.93200
Cr1085     Cr  0.65589458  0.48377864  0.63272561     1.39100
O1086       O  0.65738714  0.03247484  0.63775993    -1.21800
O1087       O  0.74901323  0.31221367  0.83066717    -0.84100
O1088       O  0.76279252  0.38200223  0.86503519    -0.81100
C1089       C  0.77807877  0.41129170  0.88644513     0.99400
O1090       O  0.81436056  0.42468073  0.89775963    -0.81200
O1091       O  0.81612526  0.36148076  0.93526058    -0.83800
C1092       C  0.82074628  0.33122504  0.94244582     1.03900
O1093       O  0.83059747  0.31427804  0.91877485    -0.76600
O1094       O  0.76332545  0.28480813  0.87599386    -0.76800
C1095       C  0.73771517  0.28528630  0.85491906     1.03900
O1096       O  0.82615526  0.36016566  0.79356563    -0.84100
O1097       O  0.83927366  0.43266061  0.82684569    -0.81100
C1098       C  0.87512086  0.45383772  0.84011948     0.99400
O1099       O  0.88768736  0.43859326  0.86299922    -0.81200
O1100       O  0.89553800  0.38338032  0.90354681    -0.83800
C1101       C  0.90756397  0.36659413  0.88107142     1.03900
O1102       O  0.88278755  0.34212932  0.85865154    -0.76600
O1103       O  0.81455134  0.30135100  0.81585977    -0.76700
C1104       C  0.82262476  0.32507525  0.78990308     1.03800
Cr1105     Cr  0.79664752  0.37118405  0.83138627     1.93700
Cr1106     Cr  0.85095503  0.39893304  0.89756248     1.93200
Cr1107     Cr  0.82283022  0.31414698  0.86702578     1.39100
O1108       O  0.82354969  0.36169713  0.86500894    -1.21800
O1109       O  0.58262240  0.36080455  0.90032409    -0.84100
O1110       O  0.65846975  0.41776143  0.92398498    -0.81100
C1111       C  0.68776742  0.43157105  0.90107540     0.99400
O1112       O  0.69397943  0.46038109  0.87953154    -0.81200
O1113       O  0.66809534  0.50656716  0.83480490    -0.83800
C1114       C  0.65583666  0.48343973  0.80883019     1.03900
O1115       O  0.63245594  0.44576275  0.81393667    -0.76600
O1116       O  0.57751414  0.37181143  0.84427111    -0.76800
C1117       C  0.57475211  0.34814467  0.86928887     1.03900
O1118       O  0.54404324  0.40480955  0.92650955    -0.84100
O1119       O  0.61575083  0.46098580  0.95409123    -0.81100
C1120       C  0.65208154  0.48849946  0.95921131     0.99400
O1121       O  0.67616300  0.99859210  0.94084271    -0.81200
O1122       O  0.62876934  0.01949707  0.89450784    -0.83800
C1123       C  0.60021804  0.01220404  0.87255962     1.03900
O1124       O  0.58911291  0.48498741  0.84813694    -0.76600
O1125       O  0.53249531  0.40834173  0.87065333    -0.76700
C1126       C  0.52007313  0.40161089  0.90183179     1.03800
Cr1127     Cr  0.60181170  0.41360094  0.92357567     1.93700
Cr1128     Cr  0.66411929  0.49126721  0.88532802     1.93200
Cr1129     Cr  0.58578077  0.42911430  0.84703805     1.39100
O1130       O  0.61659916  0.44350493  0.88506518    -1.21800
O1131       O  0.61020248  0.21140711  0.87165014    -0.84100
O1132       O  0.55506722  0.21877427  0.91168570    -0.81100
C1133       C  0.54398633  0.23557107  0.88849045     0.99400
O1134       O  0.51879762  0.21407829  0.86504399    -0.81200
O1135       O  0.98556317  0.15499603  0.81645946    -0.83800
C1136       C  0.50802144  0.16265640  0.79230520     1.03900
O1137       O  0.54153176  0.16481290  0.79992239    -0.76600
O1138       O  0.60473434  0.16467570  0.83432551    -0.76800
C1139       C  0.62532269  0.20029940  0.84755817     1.03900
O1140       O  0.58939276  0.13291349  0.90210492    -0.84100
O1141       O  0.52815251  0.13834567  0.94070170    -0.81100
C1142       C  0.99976725  0.14505703  0.94786584     0.99400
O1143       O  0.98558920  0.15783905  0.92342329    -0.81200
O1144       O  0.95647002  0.09672273  0.87406017    -0.83800
C1145       C  0.95647118  0.07256255  0.85120723     1.03900
O1146       O  0.98532541  0.08513231  0.82849703    -0.76600
O1147       O  0.54529300  0.08681291  0.86592555    -0.76700
C1148       C  0.57401217  0.09785329  0.88762191     1.03800
Cr1149     Cr  0.56793653  0.17328194  0.90407369     1.93700
Cr1150     Cr  0.99108560  0.15664091  0.86996291     1.93200
Cr1151     Cr  0.54258685  0.12639251  0.83438254     1.39100
O1152       O  0.53217033  0.15043189  0.86952043    -1.21800
C1153       C  0.55979028  0.28015503  0.89054560    -0.15200
C1154       C  0.56066581  0.30396511  0.86343579    -0.29100
H1155       H  0.57233841  0.29409408  0.91576710     0.13900
H1156       H  0.54983689  0.29072344  0.83769944     0.14400
C1157       C  0.58148641  0.03865767  0.87160541    -0.15200
C1158       C  0.59166672  0.07068123  0.89333445    -0.30300
H1159       H  0.55863839  0.03167478  0.85127374     0.13900
H1160       H  0.61501452  0.07855835  0.91334216     0.14400
C1161       C  0.90196602  0.49835042  0.83271633    -0.15200
C1162       C  0.92380456  0.02907452  0.85375901    -0.30300
H1163       H  0.90721116  0.51024454  0.80608012     0.13900
H1164       H  0.91247183  0.01813175  0.88017469     0.14400
C1165       C  0.69408186  0.25561403  0.86095183    -0.15200
C1166       C  0.66837864  0.22909857  0.83693990    -0.30300
H1167       H  0.68343201  0.25359041  0.88782511     0.13900
H1168       H  0.67933409  0.22765692  0.81087945     0.14400
C1169       C  0.75454586  0.43221280  0.89590853    -0.15200
C1170       C  0.71313032  0.41138317  0.89848811    -0.30300
H1171       H  0.77132804  0.46540689  0.89930780     0.13900
H1172       H  0.69682349  0.37792813  0.89783529     0.14400
C1173       C  0.95067169  0.37567816  0.87986579    -0.15200
C1174       C  0.97773232  0.39099234  0.90659480    -0.30300
H1175       H  0.96073611  0.36945578  0.85499541     0.13900
H1176       H  0.46700554  0.39572108  0.93372512     0.14400
C1177       C  0.66540701  0.50187564  0.77333082    -0.15200
C1178       C  0.64915094  0.47962959  0.74431501    -0.30300
H1179       H  0.68435424  0.53517275  0.77116406     0.13900
H1180       H  0.63058652  0.94577902  0.75127236     0.14400
C1181       C  0.65785938  0.48576606  0.52104006    -0.15200
C1182       C  0.66354317  0.50932766  0.99291135    -0.30300
H1183       H  0.64815601  0.45327213  0.51815129     0.13900
H1184       H  0.64759670  0.03339168  0.00205621     0.14400
C1185       C  0.82045645  0.31849370  0.97868868    -0.15200
C1186       C  0.81768738  0.34072403  0.50538236    -0.30300
H1187       H  0.83112587  0.29664357  0.98343299     0.13900
H1188       H  0.80460676  0.36075591  0.50239530     0.14400
C1189       C  0.82701809  0.31086563  0.75509980    -0.15200
C1190       C  0.80881395  0.31638928  0.72703481    -0.30300
H1191       H  0.84528169  0.29574881  0.75257848     0.13900
H1192       H  0.78936830  0.33014171  0.73047315     0.14400
C1193       C  0.72029226  0.17063712  0.60331515    -0.15200
C1194       C  0.76106198  0.19047357  0.59633845    -0.30300
H1195       H  0.70366577  0.18756203  0.60349801     0.13900
H1196       H  0.77666225  0.17267619  0.59368508     0.14400
C1197       C  0.99953362  0.40405638  0.59228163    -0.15200
C1198       C  0.52782070  0.41844670  0.61917933    -0.30300
H1199       H  0.00965912  0.41642317  0.56604588     0.13900
H1200       H  0.51776563  0.40259616  0.64425964     0.14400
C1201       C  0.97032698  0.14976489  0.74058445    -0.15200
C1202       C  0.00753496  0.17057169  0.75567705    -0.30300
H1203       H  0.94325433  0.13349543  0.75731790     0.13900
H1204       H  0.52887444  0.18378694  0.73829250     0.14400
C1205       C  0.00086871  0.14677536  0.51281374    -0.15200
C1206       C  0.97999173  0.13513629  0.98341462    -0.30300
H1207       H  0.53273797  0.16712542  0.51050148     0.13900
H1208       H  0.94652449  0.11955052  0.98480281     0.14400
C1209       C  0.91465799  0.20836519  0.60667399    -0.15200
C1210       C  0.91640294  0.23279332  0.63348833    -0.30300
H1211       H  0.90016419  0.20896206  0.58218795     0.13900
H1212       H  0.92966340  0.23159869  0.65846788     0.14400
C1213       C  0.88215822  0.46860713  0.61411453    -0.15200
C1214       C  0.88981883  0.44565303  0.63698116    -0.30300
H1215       H  0.86728087  0.95290730  0.57820159     0.13900
H1216       H  0.91090662  0.46069254  0.65857996     0.14400
C1217       C  0.79013518  0.06397291  0.65522000    -0.15200
C1218       C  0.80739710  0.03994948  0.65572858    -0.30300
H1219       H  0.80958374  0.09719362  0.65280588     0.13900
H1220       H  0.78875808  0.00706706  0.66067955     0.14400
C1221       C  0.56886312  0.07981654  0.66865109    -0.15200
C1222       C  0.55869734  0.09794644  0.64315079    -0.30300
H1223       H  0.55355942  0.07248380  0.69402462     0.13900
H1224       H  0.57628600  0.10616498  0.61877764     0.14400
O1225       O  0.86762504  0.59120334  0.12495461    -0.84100
O1226       O  0.92816734  0.65223698  0.08654471    -0.81100
C1227       C  0.94056391  0.68147163  0.10834495     0.99400
O1228       O  0.96487031  0.68502571  0.13266058    -0.81200
O1229       O  0.99743182  0.66063710  0.18645536    -0.83800
C1230       C  0.96819562  0.64751379  0.20862554     1.03900
O1231       O  0.93348013  0.61835433  0.20062735    -0.76600
O1232       O  0.87015418  0.55390463  0.16812721    -0.76800
C1233       C  0.85127140  0.56828077  0.15112967     1.03900
O1234       O  0.88978969  0.53196016  0.10086143    -0.84100
O1235       O  0.95424677  0.59588162  0.06303796    -0.81100
C1236       C  0.98678434  0.62946863  0.05679802     0.99400
O1237       O  0.50178565  0.65712406  0.08411039    -0.81200
O1238       O  0.52266122  0.62168563  0.13959238    -0.83800
C1239       C  0.51614253  0.59550660  0.16341988     1.03900
O1240       O  0.98836082  0.58659286  0.18202257    -0.76600
O1241       O  0.92570582  0.52746574  0.14447639    -0.76700
C1242       C  0.90086545  0.51107290  0.11957885     1.03800
Cr1243     Cr  0.91268410  0.59357401  0.09666157     1.93700
Cr1244     Cr  0.99391502  0.65307616  0.13369384     1.93200
Cr1245     Cr  0.93075562  0.57429494  0.17091753     1.39100
O1246       O  0.94592701  0.60632954  0.13330536    -1.21800
O1247       O  0.90330950  0.76946934  0.09349174    -0.84100
O1248       O  0.82775166  0.75137052  0.06889627    -0.81100
C1249       C  0.79771524  0.73568730  0.09114945     0.99400
O1250       O  0.79156687  0.75804632  0.11280157    -0.81200
O1251       O  0.81672300  0.82751753  0.15928781    -0.83800
C1252       C  0.82909350  0.81641209  0.18530407     1.03900
O1253       O  0.85330811  0.80300457  0.18028251    -0.76600
O1254       O  0.90886927  0.78562169  0.14946906    -0.76800
C1255       C  0.91136731  0.76469981  0.12455841     1.03900
O1256       O  0.94225145  0.85230398  0.06788538    -0.84100
O1257       O  0.87180784  0.83873384  0.03957110    -0.81100
C1258       C  0.83582119  0.83083709  0.03404445     0.99400
O1259       O  0.80908681  0.81158366  0.05695197    -0.81200
O1260       O  0.85418290  0.87959620  0.10314064    -0.83800
C1261       C  0.88233272  0.90174278  0.12495493     1.03900
O1262       O  0.89577544  0.88608533  0.14781442    -0.76600
O1263       O  0.95298607  0.86742515  0.12375515    -0.76700
C1264       C  0.96571223  0.87306755  0.09265923     1.03800
Cr1265     Cr  0.88455937  0.80381945  0.07021359     1.93700
Cr1266     Cr  0.82183144  0.81883031  0.10825553     1.93200
Cr1267     Cr  0.89986782  0.83406128  0.14730493     1.39100
O1268       O  0.86936157  0.81838237  0.10888655    -1.21800
O1269       O  0.72956427  0.55607990  0.16582326    -0.84100
O1270       O  0.71920439  0.61230409  0.12771346    -0.81100
C1271       C  0.70412736  0.62720074  0.10672727     0.99400
O1272       O  0.66647723  0.60613410  0.09797911    -0.81200
O1273       O  0.65779454  0.53719447  0.06184236    -0.83800
C1274       C  0.65222375  0.50153700  0.05668828     1.03900
O1275       O  0.66255166  0.98320107  0.08343010    -0.76600
O1276       O  0.71165233  0.51285506  0.12176067    -0.76800
C1277       C  0.73882199  0.53883971  0.14167679     1.03900
O1278       O  0.65514521  0.53448796  0.20443168    -0.84100
O1279       O  0.64660541  0.59556443  0.16796263    -0.81100
C1280       C  0.60932168  0.58052035  0.15822250     0.99400
O1281       O  0.59362032  0.55089463  0.13718485    -0.81200
O1282       O  0.58999720  0.97997209  0.09495857    -0.83800
C1283       C  0.57872734  0.95029778  0.11640803     1.03900
O1284       O  0.60329231  0.95121062  0.13945855    -0.76600
O1285       O  0.66620655  0.98087658  0.18775459    -0.76700
C1286       C  0.65558300  0.99519361  0.21307249     1.03800
Cr1287     Cr  0.68508368  0.57170688  0.16430342     1.93700
Cr1288     Cr  0.62681200  0.54427075  0.10080580     1.93200
Cr1289     Cr  0.66368655  0.98749928  0.13587144     1.39100
O1290       O  0.65471956  0.53407550  0.13279166    -1.21800
O1291       O  0.75090392  0.82157192  0.32203120    -0.84100
O1292       O  0.76584049  0.88957489  0.35856494    -0.81100
C1293       C  0.78037812  0.91716253  0.38154130     0.99400
O1294       O  0.81648313  0.92984941  0.39308590    -0.81200
O1295       O  0.81374692  0.86499957  0.43080987    -0.83800
C1296       C  0.81303306  0.83176972  0.43775779     1.03900
O1297       O  0.82108411  0.81296412  0.41440213    -0.76600
O1298       O  0.75932426  0.78745824  0.36541588    -0.76800
C1299       C  0.73642310  0.79205005  0.34378808     1.03900
O1300       O  0.83011792  0.86614561  0.28846546    -0.84100
O1301       O  0.84515455  0.93815935  0.32250674    -0.81100
C1302       C  0.88093873  0.95712654  0.33591966     0.99400
O1303       O  0.89086140  0.94132060  0.36044322    -0.81200
O1304       O  0.89320149  0.88343580  0.40295607    -0.83800
C1305       C  0.90508573  0.86503400  0.38214278     1.03900
O1306       O  0.88094615  0.84142210  0.35891324    -0.76600
O1307       O  0.81792561  0.80687115  0.31042753    -0.76700
C1308       C  0.82734509  0.83132547  0.28480979     1.03800
Cr1309     Cr  0.80026845  0.87803498  0.32569447     1.93700
Cr1310     Cr  0.85106195  0.90173432  0.39401120     1.93200
Cr1311     Cr  0.82013642  0.81615420  0.36211145     1.39100
O1312       O  0.82381536  0.86534164  0.36038786    -1.21800
O1313       O  0.58369161  0.86203654  0.40786871    -0.84100
O1314       O  0.66017565  0.92034437  0.43010764    -0.81100
C1315       C  0.69010760  0.93478627  0.40755261     0.99400
O1316       O  0.69542995  0.96278580  0.38551581    -0.81200
O1317       O  0.66873655  0.00524466  0.33807414    -0.83800
C1318       C  0.65680161  0.98108109  0.31271812     1.03900
O1319       O  0.63369997  0.94358676  0.31875831    -0.76600
O1320       O  0.58028294  0.87117325  0.35120879    -0.76800
C1321       C  0.57734564  0.84855632  0.37707797     1.03900
O1322       O  0.54476027  0.90709117  0.43119139    -0.84100
O1323       O  0.61624338  0.96394893  0.45907849    -0.81100
C1324       C  0.65247434  0.99162199  0.46397784     0.99400
O1325       O  0.67905523  0.49657091  0.43512290    -0.81200
O1326       O  0.63344550  0.51991761  0.39100861    -0.83800
C1327       C  0.60452217  0.51409210  0.37012845     1.03900
O1328       O  0.58929242  0.98314542  0.34977738    -0.76600
O1329       O  0.53341353  0.90703540  0.37481719    -0.76700
C1330       C  0.52074964  0.90208459  0.40590380     1.03800
Cr1331     Cr  0.60283511  0.91585261  0.42928492     1.93700
Cr1332     Cr  0.66447253  0.99259836  0.38929941     1.93200
Cr1333     Cr  0.58697919  0.92778040  0.35161520     1.39100
O1334       O  0.61746119  0.94438267  0.38990447    -1.21800
O1335       O  0.61684888  0.71062083  0.37776117    -0.84100
O1336       O  0.56512857  0.72177292  0.41976288    -0.81100
C1337       C  0.55237133  0.73814511  0.39759816     0.99400
O1338       O  0.52576125  0.71641283  0.37520996    -0.81200
O1339       O  0.98764961  0.65482657  0.31937663    -0.83800
C1340       C  0.51298258  0.66597751  0.30210674     1.03900
O1341       O  0.54598784  0.66646792  0.30887618    -0.76600
O1342       O  0.60812265  0.66143530  0.34208398    -0.76800
C1343       C  0.63030301  0.69746714  0.35387548     1.03900
O1344       O  0.59338742  0.63144537  0.40902765    -0.84100
O1345       O  0.53611448  0.64147572  0.45002382    -0.81100
C1346       C  0.99734096  0.63866253  0.44993346     0.99400
O1347       O  0.98345699  0.65193833  0.42573779    -0.81200
O1348       O  0.95584392  0.59298791  0.37442185    -0.83800
C1349       C  0.95622090  0.56988352  0.35069314     1.03900
O1350       O  0.98558844  0.58369643  0.32846022    -0.76600
O1351       O  0.54670219  0.58598563  0.37385324    -0.76700
C1352       C  0.57662221  0.59645373  0.39418547     1.03800
Cr1353     Cr  0.57490669  0.67423071  0.41176313     1.93700
Cr1354     Cr  0.99063859  0.65325605  0.37258707     1.93200
Cr1355     Cr  0.54568879  0.62662475  0.34264797     1.39100
O1356       O  0.53740285  0.65161821  0.37830918    -1.21800
C1357       C  0.56765834  0.78266669  0.39927866    -0.15200
C1358       C  0.56506084  0.80475728  0.37230058    -0.29100
H1359       H  0.58197876  0.79783925  0.42370221     0.13900
H1360       H  0.55273047  0.79026990  0.34720655     0.14400
C1361       C  0.58633504  0.54092096  0.37178995    -0.15200
C1362       C  0.59457785  0.56923839  0.39696734    -0.30300
H1363       H  0.56492536  0.53693913  0.35092982     0.13900
H1364       H  0.61665028  0.57438379  0.41753129     0.14400
C1365       C  0.91065512  0.00027113  0.32645890    -0.15200
C1366       C  0.92439860  0.52586219  0.35260182    -0.30300
H1367       H  0.92187159  0.00891188  0.29975534     0.13900
H1368       H  0.91639595  0.51389081  0.37923660     0.14400
C1369       C  0.69163906  0.76478002  0.34567559    -0.15200
C1370       C  0.67333919  0.72374668  0.34207079    -0.30300
H1371       H  0.67336937  0.77897171  0.35267715     0.13900
H1372       H  0.69084746  0.70951147  0.33298858     0.14400
C1373       C  0.75652221  0.93764715  0.39188552    -0.15200
C1374       C  0.71811104  0.91702771  0.40589990    -0.30300
H1375       H  0.76984796  0.97006160  0.38530462     0.13900
H1376       H  0.70585134  0.88527922  0.41431068     0.14400
C1377       C  0.94769799  0.87164732  0.38333585    -0.15200
C1378       C  0.97479101  0.88828061  0.41017013    -0.30300
H1379       H  0.95763208  0.86285393  0.35969427     0.13900
H1380       H  0.46660999  0.89605079  0.43643738     0.14400
C1381       C  0.66603900  0.99826926  0.27673624    -0.15200
C1382       C  0.64941832  0.97556007  0.24791031    -0.30300
H1383       H  0.68462402  0.03156238  0.27405497     0.13900
H1384       H  0.62853387  0.44841515  0.24559448     0.14400
C1385       C  0.67408349  0.99996979  0.02344171    -0.15200
C1386       C  0.66411705  0.01301751  0.49757791    -0.30300
H1387       H  0.68196753  0.97608143  0.01875391     0.13900
H1388       H  0.67523866  0.54158498  0.49400916     0.14400
C1389       C  0.80763929  0.81667350  0.47398076    -0.15200
C1390       C  0.82592301  0.84420635  0.00110144    -0.30300
H1391       H  0.79910363  0.78468994  0.47836083     0.13900
H1392       H  0.83979830  0.87713282  0.99654798     0.14400
C1393       C  0.83449209  0.81808112  0.25030067    -0.15200
C1394       C  0.81897499  0.82459379  0.22084287    -0.30300
H1395       H  0.85137102  0.80142453  0.24929405     0.13900
H1396       H  0.80045234  0.83952784  0.22266001     0.14400
C1397       C  0.72948492  0.67105087  0.09555875    -0.15200
C1398       C  0.77099929  0.69014686  0.09303046    -0.30300
H1399       H  0.71394653  0.68873784  0.09172131     0.13900
H1400       H  0.78629342  0.67195555  0.09437483     0.14400
C1401       C  0.00926150  0.90532491  0.08651224    -0.15200
C1402       C  0.53632993  0.91469295  0.11605810    -0.30300
H1403       H  0.01841476  0.92200231  0.06177054     0.13900
H1404       H  0.52684478  0.89558787  0.13956316     0.14400
C1405       C  0.97502664  0.66059136  0.24557743    -0.15200
C1406       C  0.01221049  0.67489717  0.26011275    -0.30300
H1407       H  0.94795251  0.64892593  0.26243555     0.13900
H1408       H  0.53305122  0.68640883  0.24796965     0.14400
C1409       C  0.00581877  0.63810451  0.02099272    -0.15200
C1410       C  0.97722140  0.62843645  0.48525105    -0.30300
H1411       H  0.53987985  0.65711070  0.02231557     0.13900
H1412       H  0.94428991  0.61727900  0.48685441     0.14400
C1413       C  0.92692060  0.71181098  0.10420563    -0.15200
C1414       C  0.92497772  0.73433839  0.13093948    -0.30300
H1415       H  0.91626256  0.71418397  0.07829252     0.13900
H1416       H  0.93394096  0.73079843  0.15722415     0.14400
C1417       C  0.89177386  0.96866730  0.10176264    -0.15200
C1418       C  0.90002675  0.94682243  0.12541081    -0.30300
H1419       H  0.86403117  0.45231655  0.09089029     0.13900
H1420       H  0.92093110  0.96277497  0.14689903     0.14400
C1421       C  0.78163829  0.54975420  0.13524619    -0.15200
C1422       C  0.80886000  0.55696576  0.16077204    -0.30300
H1423       H  0.79068236  0.55015873  0.10806366     0.13900
H1424       H  0.79947664  0.55271598  0.18814279     0.14400
C1425       C  0.58467799  0.60007693  0.16756001    -0.15200
C1426       C  0.54326567  0.57769939  0.16703135    -0.30300
H1427       H  0.60014083  0.63332512  0.17036544     0.13900
H1428       H  0.52826540  0.54427233  0.16645840     0.14400
O1429       O  0.86957976  0.59413782  0.62845699    -0.84100
O1430       O  0.92493529  0.65387544  0.58616961    -0.81100
C1431       C  0.93879382  0.68371761  0.60750261     0.99400
O1432       O  0.96554738  0.68846452  0.62993950    -0.81200
O1433       O  0.00835345  0.66707035  0.67748702    -0.83800
C1434       C  0.98405249  0.65492929  0.70343048     1.03900
O1435       O  0.94799914  0.62556383  0.69970502    -0.76600
O1436       O  0.87814416  0.56090852  0.67224417    -0.76800
C1437       C  0.85631997  0.57254429  0.65572545     1.03900
O1438       O  0.88849308  0.53419138  0.60155696    -0.84100
O1439       O  0.94906177  0.59670380  0.55932139    -0.81100
C1440       C  0.98047931  0.63029314  0.55078855     0.99400
O1441       O  0.50298261  0.65973765  0.58370279    -0.81200
O1442       O  0.52489294  0.62291008  0.63705849    -0.83800
C1443       C  0.51897546  0.59627015  0.66024602     1.03900
O1444       O  0.99877987  0.59215733  0.67144205    -0.76600
O1445       O  0.92858847  0.53094399  0.64192464    -0.76700
C1446       C  0.90103096  0.51372723  0.61908906     1.03800
Cr1447     Cr  0.91108046  0.59563572  0.59642140     1.93700
Cr1448     Cr  0.99536960  0.65735741  0.62592699     1.93200
Cr1449     Cr  0.93914301  0.57996430  0.66845417     1.39100
O1450       O  0.94833817  0.61027235  0.63010230    -1.21800
O1451       O  0.90193125  0.77179964  0.59369805    -0.84100
O1452       O  0.82584201  0.75216034  0.56885596    -0.81100
C1453       C  0.79580744  0.73613279  0.59114345     0.99400
O1454       O  0.78861490  0.75830468  0.61229230    -0.81200
O1455       O  0.81273716  0.82892198  0.65822894    -0.83800
C1456       C  0.82484771  0.81797244  0.68448087     1.03900
O1457       O  0.84841393  0.80379123  0.67967738    -0.76600
O1458       O  0.90324720  0.78482131  0.65009837    -0.76800
C1459       C  0.90801689  0.76554700  0.62498797     1.03900
O1460       O  0.93932162  0.85438003  0.56829306    -0.84100
O1461       O  0.86876149  0.83950903  0.53939953    -0.81100
C1462       C  0.83260162  0.83083459  0.53364500     0.99400
O1463       O  0.80581851  0.81110808  0.55631800    -0.81200
O1464       O  0.85069571  0.87976087  0.60192092    -0.83800
C1465       C  0.87929184  0.90205286  0.62336837     1.03900
O1466       O  0.89260567  0.88663461  0.64661188    -0.76600
O1467       O  0.94963026  0.86631432  0.62461026    -0.76700
C1468       C  0.96274107  0.87345163  0.59361810     1.03800
Cr1469     Cr  0.88213381  0.80518001  0.57016619     1.93700
Cr1470     Cr  0.81833233  0.81914273  0.60746383     1.93200
Cr1471     Cr  0.89568894  0.83407285  0.64730354     1.39100
O1472       O  0.86599076  0.81898493  0.60859384    -1.21800
O1473       O  0.73219021  0.55511512  0.66727862    -0.84100
O1474       O  0.72099318  0.61080231  0.62776455    -0.81100
C1475       C  0.70534880  0.62529631  0.60686352     0.99400
O1476       O  0.66800361  0.60330411  0.59759408    -0.81200
O1477       O  0.66159373  0.53533062  0.56172131    -0.83800
C1478       C  0.65744455  0.50026538  0.55641909     1.03900
O1479       O  0.66001411  0.98087344  0.58571184    -0.76600
O1480       O  0.71563191  0.51092252  0.62407529    -0.76800
C1481       C  0.74205019  0.53665407  0.64472759     1.03900
O1482       O  0.65671781  0.53235421  0.70433070    -0.84100
O1483       O  0.64735444  0.59236824  0.66696454    -0.81100
C1484       C  0.61025790  0.57719354  0.65664436     0.99400
O1485       O  0.59502877  0.54735841  0.63574372    -0.81200
O1486       O  0.58831406  0.97899611  0.59643577    -0.83800
C1487       C  0.57674058  0.95010197  0.61873584     1.03900
O1488       O  0.60128925  0.95176661  0.64217456    -0.76600
O1489       O  0.66501661  0.98265241  0.68965741    -0.76700
C1490       C  0.65538639  0.99832044  0.71448312     1.03800
Cr1491     Cr  0.68681895  0.56962849  0.66425026     1.93700
Cr1492     Cr  0.62935982  0.54128477  0.60006052     1.93200
Cr1493     Cr  0.66192027  0.98736797  0.63790609     1.39100
O1494       O  0.65736434  0.53165226  0.63255152    -1.21800
O1495       O  0.74894279  0.82269576  0.82308531    -0.84100
O1496       O  0.76398301  0.88972544  0.86130877    -0.81100
C1497       C  0.77945096  0.91811355  0.88354123     0.99400
O1498       O  0.81612900  0.93145754  0.89380430    -0.81200
O1499       O  0.81505511  0.86692933  0.93168134    -0.83800
C1500       C  0.81416568  0.83342543  0.93804034     1.03900
O1501       O  0.82083163  0.81426904  0.91396474    -0.76600
O1502       O  0.75858278  0.78784515  0.86507024    -0.76800
C1503       C  0.73525622  0.79223412  0.84377898     1.03900
O1504       O  0.82675132  0.86832423  0.78824889    -0.84100
O1505       O  0.84183223  0.93987108  0.82370725    -0.81100
C1506       C  0.87813061  0.95894093  0.83612098     0.99400
O1507       O  0.88923504  0.94263789  0.85933318    -0.81200
O1508       O  0.89286639  0.88539557  0.90178130    -0.83800
C1509       C  0.90443191  0.86716668  0.88061318     1.03900
O1510       O  0.88008618  0.84359698  0.85756716    -0.76600
O1511       O  0.81704876  0.80957272  0.80961680    -0.76700
C1512       C  0.82495028  0.83397570  0.78411696     1.03800
Cr1513     Cr  0.79772401  0.87933297  0.82684108     1.93700
Cr1514     Cr  0.85069074  0.90340414  0.89381867     1.93200
Cr1515     Cr  0.81941085  0.81779863  0.86151271     1.39100
O1516       O  0.82247470  0.86672844  0.86057045    -1.21800
O1517       O  0.58268248  0.86205613  0.90655468    -0.84100
O1518       O  0.65853602  0.92052214  0.92934412    -0.81100
C1519       C  0.68857342  0.93526277  0.90689487     0.99400
O1520       O  0.69441366  0.96392519  0.88538301    -0.81200
O1521       O  0.66772261  0.00755754  0.83916353    -0.83800
C1522       C  0.65686008  0.98395397  0.81353478     1.03900
O1523       O  0.63465255  0.94617811  0.81896880    -0.76600
O1524       O  0.58166119  0.87190440  0.84971952    -0.76800
C1525       C  0.57783133  0.84893243  0.87567344     1.03900
O1526       O  0.54327461  0.90694677  0.92952369    -0.84100
O1527       O  0.61342010  0.96370042  0.95787227    -0.81100
C1528       C  0.64947501  0.99108979  0.96367627     0.99400
O1529       O  0.67822641  0.49643398  0.93579242    -0.81200
O1530       O  0.63183668  0.51913578  0.89236964    -0.83800
C1531       C  0.60249858  0.51295296  0.87189312     1.03900
O1532       O  0.58741269  0.98277535  0.85011994    -0.76600
O1533       O  0.53222641  0.90518472  0.87298794    -0.76700
C1534       C  0.51940784  0.90110525  0.90399312     1.03800
Cr1535     Cr  0.60114127  0.91569325  0.92828175     1.93700
Cr1536     Cr  0.66290279  0.99307952  0.88983136     1.93200
Cr1537     Cr  0.58668372  0.92803942  0.85073903     1.39100
O1538       O  0.61630064  0.94451253  0.88933585    -1.21800
O1539       O  0.61644154  0.71052339  0.87917230    -0.84100
O1540       O  0.56427911  0.72180539  0.92041043    -0.81100
C1541       C  0.55210211  0.73822577  0.89767261     0.99400
O1542       O  0.52547701  0.71629882  0.87539570    -0.81200
O1543       O  0.96785595  0.64714196  0.82888679    -0.83800
C1544       C  0.51386543  0.66575958  0.80278059     1.03900
O1545       O  0.54696648  0.66667614  0.81013411    -0.76600
O1546       O  0.60847260  0.66078617  0.84452649    -0.76800
C1547       C  0.63061815  0.69676930  0.85644478     1.03900
O1548       O  0.59277051  0.63120653  0.91051875    -0.84100
O1549       O  0.53533708  0.64094905  0.95082057    -0.81100
C1550       C  0.00012149  0.63978885  0.95533725     0.99400
O1551       O  0.98327185  0.65245141  0.93350765    -0.81200
O1552       O  0.95179497  0.59003897  0.88411415    -0.83800
C1553       C  0.95067881  0.56757047  0.85897999     1.03900
O1554       O  0.97700061  0.58232643  0.83410083    -0.76600
O1555       O  0.54574724  0.58568070  0.87564115    -0.76700
C1556       C  0.57559222  0.59598029  0.89600092     1.03800
Cr1557     Cr  0.57436686  0.67417203  0.91295409     1.93700
Cr1558     Cr  0.98231477  0.65053922  0.88026453     1.93200
Cr1559     Cr  0.54589356  0.62656074  0.84404048     1.39100
O1560       O  0.53732590  0.65167568  0.87932898    -1.21800
C1561       C  0.56788573  0.78299772  0.89858036    -0.15200
C1562       C  0.56601035  0.80507017  0.87110822    -0.29100
H1563       H  0.58175726  0.79838615  0.92303819     0.13900
H1564       H  0.55421767  0.79044961  0.84596371     0.14400
C1565       C  0.58339509  0.53892182  0.87447419    -0.15200
C1566       C  0.59321894  0.56847366  0.89884476    -0.30300
H1567       H  0.56044155  0.53365962  0.85470357     0.13900
H1568       H  0.61675796  0.57476794  0.91830337     0.14400
C1569       C  0.90715303  0.00248004  0.82705811    -0.15200
C1570       C  0.91947458  0.52343156  0.86043387    -0.30300
H1571       H  0.91452046  0.01248391  0.79995284     0.13900
H1572       H  0.91028091  0.51059849  0.88670853     0.14400
C1573       C  0.69072061  0.76337504  0.84436339    -0.15200
C1574       C  0.67423466  0.72238972  0.84635949    -0.30300
H1575       H  0.67063557  0.77664673  0.84468562     0.13900
H1576       H  0.69338124  0.70827193  0.84350910     0.14400
C1577       C  0.75578462  0.93840156  0.89477280    -0.15200
C1578       C  0.71574036  0.91677385  0.90458999    -0.30300
H1579       H  0.77095495  0.97174917  0.89285602     0.13900
H1580       H  0.70161961  0.88378266  0.90891552     0.14400
C1581       C  0.94686967  0.87391314  0.88146250    -0.15200
C1582       C  0.97366752  0.89083148  0.90831654    -0.30300
H1583       H  0.95687823  0.86506998  0.85788631     0.13900
H1584       H  0.46571863  0.89647595  0.93403694     0.14400
C1585       C  0.66628846  0.00172702  0.77791832    -0.15200
C1586       C  0.64871308  0.97913901  0.74934141    -0.30300
H1587       H  0.68563124  0.03496276  0.77532715     0.13900
H1588       H  0.63169342  0.44622375  0.74600495     0.14400
C1589       C  0.67038671  0.99474869  0.52526342    -0.15200
C1590       C  0.65972605  0.01286749  0.99704596    -0.30300
H1591       H  0.67137926  0.96647652  0.52149403     0.13900
H1592       H  0.68028354  0.54273000  0.99420385     0.14400
C1593       C  0.80970468  0.81799530  0.97426601    -0.15200
C1594       C  0.82243727  0.84330901  0.50056094    -0.30300
H1595       H  0.80015692  0.78569034  0.97822183     0.13900
H1596       H  0.83538677  0.87608653  0.49573658     0.14400
C1597       C  0.83178378  0.82118354  0.74925844    -0.15200
C1598       C  0.81514780  0.82674216  0.72001705    -0.30300
H1599       H  0.84938296  0.80527758  0.74787777     0.13900
H1600       H  0.79607317  0.84106211  0.72198883     0.14400
C1601       C  0.72922499  0.66957411  0.59633421    -0.15200
C1602       C  0.77074554  0.69043238  0.59378924    -0.30300
H1603       H  0.71233626  0.68592000  0.59237966     0.13900
H1604       H  0.78738560  0.67355218  0.59514430     0.14400
C1605       C  0.00656569  0.90546941  0.58820928    -0.15200
C1606       C  0.53400731  0.91471832  0.61890145    -0.30300
H1607       H  0.01654991  0.92163189  0.56328400     0.13900
H1608       H  0.52386401  0.89744245  0.64335310     0.14400
C1609       C  0.99993379  0.67086735  0.73875645    -0.15200
C1610       C  0.97535505  0.65881693  0.76731062    -0.30300
H1611       H  0.03325804  0.68790657  0.74189558     0.13900
H1612       H  0.53469374  0.68595238  0.74866799     0.14400
C1613       C  0.99921382  0.63645208  0.51517575    -0.15200
C1614       C  0.98263308  0.62812144  0.99156919    -0.30300
H1615       H  0.54128153  0.66166945  0.52156125     0.13900
H1616       H  0.94934845  0.61394552  0.99429873     0.14400
C1617       C  0.92445591  0.71357405  0.60427872    -0.15200
C1618       C  0.92214173  0.73554596  0.63126771    -0.30300
H1619       H  0.91336206  0.71590399  0.57854082     0.13900
H1620       H  0.93115249  0.73184903  0.65749792     0.14400
C1621       C  0.88948489  0.96861158  0.59890161    -0.15200
C1622       C  0.89781690  0.94711973  0.62282534    -0.30300
H1623       H  0.86079387  0.45401766  0.59261655     0.13900
H1624       H  0.91935147  0.96336558  0.64386889     0.14400
C1625       C  0.78498696  0.54628380  0.64043682    -0.15200
C1626       C  0.81334816  0.55894608  0.66603705    -0.30300
H1627       H  0.79387525  0.54279533  0.61403287     0.13900
H1628       H  0.80512589  0.55944874  0.69328107     0.14400
C1629       C  0.58559285  0.59695164  0.66557529    -0.15200
C1630       C  0.54450840  0.57650502  0.66096470    -0.30300
H1631       H  0.60139486  0.62926099  0.67280658     0.13900
H1632       H  0.52864186  0.54365113  0.65565842     0.14400
loop_ 
_geom_bond_atom_site_label_1 
_geom_bond_atom_site_label_2 
_geom_bond_distance 
_geom_bond_site_symmetry_2 
_ccdc_geom_bond_type 
O1          Cr19   1.956       .  S
O1            C9   1.254       .  A
O2          Cr19   2.012       .  S
O2            C3   1.269       .  A
C3            O4   1.259       .  A
C3          C189   1.471       .  S
O4          Cr20   1.978       .  S
O5          Cr20   2.046       .  S
O5            C6   1.275       .  A
C6            O7   1.253       .  A
C6          C181   1.481       .  S
O7          Cr21   1.960       .  S
O8          Cr21   2.027       .  S
O8            C9   1.265       .  A
C9          C198   1.465       .  S
O10         Cr19   2.040       .  S
O10          C18   1.272       .  A
O11         Cr19   1.979       .  S
O11          C12   1.262       .  A
C12         O829   1.278       .  A
C12         C185   1.498       .  S
O13        Cr836   2.051       .  S
O13         C828   1.278       .  A
O14        Cr836   1.961   1_455  S
O14          C15   1.259       .  A
C15         O832   1.273   1_455  A
C15         C202   1.476       .  S
O16         Cr21   2.031       .  S
O16         C831   1.269       .  A
O17         Cr21   1.941       .  S
O17          C18   1.253       .  A
C18         C601   1.474   1_545  S
Cr19         O22   1.766       .  S
Cr20        O829   2.051       .  S
Cr20        O830   1.968       .  S
Cr20         O22   1.758       .  S
Cr21         O22   1.763       .  S
O23         Cr41   1.950       .  S
O23          C31   1.255       .  A
O24         Cr41   2.052       .  S
O24          C25   1.289       .  A
C25          O26   1.275       .  A
C25         C174   1.484       .  S
O26         Cr42   1.969       .  S
O27         Cr42   1.996       .  S
O27          C28   1.249       .  A
C28          O29   1.248       .  A
C28         C170   1.470       .  S
O29         Cr43   1.969       .  S
O30         Cr43   2.012       .  S
O30          C31   1.267       .  A
C31         C190   1.482       .  S
O32         Cr41   2.022       .  S
O32          C40   1.268       .  A
O33         Cr41   1.975       .  S
O33          C34   1.245       .  A
C34          O35   1.246       .  A
C34         C166   1.458       .  S
O35         Cr42   1.991       .  S
O36         Cr42   1.977       .  S
O36          C37   1.274       .  A
C37          O38   1.284       .  A
C37         C194   1.470       .  S
O38         Cr43   2.029       .  S
O39         Cr43   1.946       .  S
O39          C40   1.253       .  A
C40         C177   1.487       .  S
Cr41         O44   1.761       .  S
Cr42         O44   1.789       .  S
Cr43         O44   1.766       .  S
O45         Cr63   1.997       .  S
O45          C53   1.263       .  A
O46         Cr63   1.984       .  S
O46          C47   1.257       .  A
C47          O48   1.266       .  A
C47         C173   1.482       .  S
O48         Cr64   2.028       .  S
O49         Cr64   1.971       .  S
O49          C50   1.260       .  A
C50         O459   1.266   1_545  A
C50         C569   1.473       .  S
O51         Cr65   1.989       .  S
O51         C458   1.260       .  A
O52        Cr473   1.968   1_545  S
O52          C53   1.262       .  A
C53         C197   1.460       .  S
O54         Cr63   1.986       .  S
O54         C470   1.264   1_545  A
O55         Cr63   2.029       .  S
O55          C56   1.270       .  A
C56          O57   1.256       .  A
C56         C201   1.472       .  S
O57         Cr64   1.963       .  S
O58        Cr472   2.039       .  S
O58          C59   1.271       .  A
C59          O60   1.260       .  A
C59         C178   1.474       .  S
O60         Cr65   1.968       .  S
O61         Cr65   1.993       .  S
O61          C62   1.260       .  A
C62         O462   1.265       .  A
C62         C158   1.470       .  S
Cr63         O66   1.777       .  S
Cr64        O466   2.024   1_545  S
Cr64         O66   1.782       .  S
Cr65        O460   1.958       .  S
Cr65        O474   1.762       .  S
O66        Cr473   1.775   1_545  S
O67         Cr85   2.009       .  S
O67          C75   1.267       .  A
O68         Cr85   1.972       .  S
O68          C69   1.255       .  A
C69          O70   1.266       .  A
C69         C149   1.478       .  S
O70         Cr86   2.029       .  S
O71         Cr86   1.977       .  S
O71          C72   1.261       .  A
C72          O73   1.265       .  A
C72         C165   1.471       .  S
O73         Cr87   2.004       .  S
O74         Cr87   1.981       .  S
O74          C75   1.264       .  A
C75         C145   1.470       .  S
O76         Cr85   1.979       .  S
O76          C84   1.262       .  A
O77         Cr85   2.042       .  S
O77          C78   1.273       .  A
C78          O79   1.255       .  A
C78         C141   1.478       .  S
O79         Cr86   1.957       .  S
O80         Cr86   2.026       .  S
O80          C81   1.267       .  A
C81          O82   1.262       .  A
C81         C153   1.477       .  S
O82         Cr87   1.978       .  S
O83         Cr87   1.993       .  S
O83          C84   1.259       .  A
C84         C169   1.465       .  S
Cr85         O88   1.775       .  S
Cr86         O88   1.780       .  S
Cr87         O88   1.775       .  S
O89        Cr107   1.956       .  S
O89          C97   1.257       .  A
O90        Cr107   2.037       .  S
O90          C91   1.286       .  A
C91          O92   1.279       .  A
C91         C150   1.476       .  S
O92        Cr108   1.977       .  S
O93        Cr108   1.990       .  S
O93          C94   1.247       .  A
C94          O95   1.249       .  A
C94         C157   1.474       .  S
O95        Cr109   1.978       .  S
O96        Cr109   2.013       .  S
O96          C97   1.268       .  A
C97         C134   1.485       .  S
O98        Cr107   2.006       .  S
O98         C106   1.262       .  A
O99        Cr107   1.964       .  S
O99         C100   1.244       .  A
C100        O509   1.243       .  A
C100        C162   1.457       .  S
O101       Cr516   1.997       .  S
O101        C508   1.245       .  A
O102       Cr516   1.971   1_545  S
O102        C103   1.276       .  A
C103        O512   1.288   1_545  A
C103        C137   1.471       .  S
O104       Cr109   2.032       .  S
O104        C511   1.285       .  A
O105       Cr109   1.953       .  S
O105        C106   1.255       .  A
C106        C970   1.481   1_455  S
Cr107       O110   1.758       .  S
Cr108       O509   1.984       .  S
Cr108       O510   1.969       .  S
Cr108       O110   1.787       .  S
Cr109       O110   1.768       .  S
O111       Cr129   1.956       .  S
O111        C119   1.254       .  A
O112       Cr129   2.016       .  S
O112        C113   1.270       .  A
C113        O114   1.259       .  A
C113        C133   1.473       .  S
O114       Cr946   1.978   1_455  S
O115       Cr130   2.046       .  S
O115        C932   1.270       .  A
C116        O117   1.254       .  A
C116        O931   1.272   1_455  A
C116        C998   1.480       .  S
O117       Cr131   1.966       .  S
O118       Cr131   2.039       .  S
O118        C119   1.269       .  A
C119        C146   1.477       .  S
O120       Cr129   2.044       .  S
O120        C128   1.273       .  A
O121       Cr129   1.978       .  S
O121        C938   1.261   1_455  A
C122        O123   1.275       .  A
C122        O937   1.260       .  A
C122        C186   1.496       .  S
O123       Cr130   2.047       .  S
O124       Cr130   1.956       .  S
O124        C125   1.259       .  A
C125        O126   1.274       .  A
C125        C142   1.469       .  S
O126       Cr947   2.042       .  S
O127       Cr131   1.945       .  S
O127        C128   1.254       .  A
C128        C138   1.480       .  S
Cr129       O132   1.767       .  S
Cr130       O930   1.975       .  S
Cr130       O948   1.768       .  S
Cr131       O942   2.040   1_455  S
Cr131       O132   1.764       .  S
O132       Cr946   1.763   1_455  S
C133        C134   1.354       .  D
C133        H135   1.087       .  S
C134        H136   1.086       .  S
C137        C138   1.352       .  D
C137        H139   1.087       .  S
C138        H140   1.086       .  S
C141        C550   1.348       .  D
C141        H143   1.086       .  S
C142        C549   1.344       .  D
C142        H144   1.088       .  S
C145        C146   1.345       .  D
C145        H147   1.087       .  S
C146        H148   1.086       .  S
C149        C150   1.343       .  D
C149        H151   1.086       .  S
C150        H152   1.087       .  S
C153        C154   1.353       .  D
C153        H155   1.088       .  S
C154        C922   1.485       .  S
C154        H972   1.086       .  S
H156        C970   1.086       .  S
C157        C158   1.338       .  D
C157        H159   1.087       .  S
C158        H568   1.087       .  S
H160        C566   1.087       .  S
C161        C458   1.455       .  S
C161        C366   1.333   1_554  D
C161        H163   1.089       .  S
C162        C365   1.333       .  D
C162        H572   1.086       .  S
H164        C570   1.086       .  S
C165        C370   1.340       .  D
C165        H167   1.088       .  S
C166        C369   1.337   1_554  D
C166        H168   1.086   1_554  S
C169        C170   1.340       .  D
C169        H171   1.087       .  S
C170        H172   1.088       .  S
C173        C174   1.348       .  D
C173        H175   1.087       .  S
C174        H176   1.087       .  S
C177        C994   1.354       .  D
C177        H179   1.086       .  S
C178        C993   1.351   1_455  D
C178        H180   1.087       .  S
C181        C182   1.338       .  D
C181        H183   1.087       .  S
C182        C932   1.479       .  S
C182       H1000   1.087       .  S
H184        C998   1.087       .  S
C185        C390   1.358   1_554  D
C185       H1003   1.087       .  S
C186        C389   1.358       .  D
C186        H188   1.086       .  S
H187       C1001   1.086       .  S
C189        C190   1.353       .  D
C189        H191   1.087       .  S
C190        H192   1.087       .  S
C193        C426   1.481       .  S
C193        C194   1.350       .  D
C193        H603   1.086       .  S
C194        H196   1.087       .  S
H195        C601   1.086       .  S
C197        C198   1.339       .  D
C197        H199   1.088       .  S
C198        H200   1.087       .  S
C201        C202   1.342       .  D
C201        H203   1.086       .  S
C202        H204   1.089       .  S
O205       Cr223   1.955       .  S
O205        C213   1.254       .  A
O206       Cr223   2.016       .  S
O206        C207   1.269       .  A
C207        O208   1.258       .  A
C207        C393   1.472       .  S
O208       Cr224   1.974       .  S
O209       Cr224   2.051       .  S
O209        C210   1.275       .  A
C210        O211   1.253       .  A
C210        C385   1.486       .  S
O211       Cr225   1.962       .  S
O212       Cr225   2.031       .  S
O212        C213   1.267       .  A
C213        C402   1.471       .  S
O214       Cr223   2.043       .  S
O214        C222   1.272       .  A
O215       Cr223   1.978       .  S
O215        C216   1.262       .  A
C216       O1033   1.279       .  A
C216        C389   1.499       .  S
O217      Cr1040   2.054       .  S
O217       C1032   1.279       .  A
O218      Cr1040   1.964   1_455  S
O218        C219   1.258       .  A
C219       O1036   1.270   1_455  A
C219        C406   1.473       .  S
O220       Cr225   2.033       .  S
O220       C1035   1.270       .  A
O221       Cr225   1.946       .  S
O221        C222   1.254       .  A
C222        C805   1.479   1_545  S
Cr223       O226   1.769       .  S
Cr224      O1033   2.056       .  S
Cr224      O1034   1.964       .  S
Cr224       O226   1.762       .  S
Cr225       O226   1.765       .  S
O227       Cr245   1.956       .  S
O227        C235   1.255       .  A
O228       Cr245   2.049       .  S
O228        C229   1.290       .  A
C229        O230   1.279       .  A
C229        C378   1.486       .  S
O230       Cr246   1.980       .  S
O231       Cr246   1.996       .  S
O231        C232   1.247       .  A
C232        O233   1.247       .  A
C232        C374   1.474       .  S
O233       Cr247   1.974       .  S
O234       Cr247   2.007       .  S
O234        C235   1.265       .  A
C235        C394   1.480       .  S
O236       Cr245   2.020       .  S
O236        C244   1.268       .  A
O237       Cr245   1.975       .  S
O237        C238   1.245       .  A
C238        O239   1.246       .  A
C238        C370   1.468       .  S
O239       Cr246   1.994       .  S
O240       Cr246   1.976       .  S
O240        C241   1.277       .  A
C241        O242   1.286       .  A
C241        C398   1.469       .  S
O242       Cr247   2.031       .  S
O243       Cr247   1.964       .  S
O243        C244   1.257       .  A
C244        C381   1.492       .  S
Cr245       O248   1.759       .  S
Cr246       O248   1.785       .  S
Cr247       O248   1.767       .  S
O249       Cr267   2.001       .  S
O249        C257   1.265       .  A
O250       Cr267   1.987       .  S
O250        C251   1.257       .  A
C251        O252   1.266       .  A
C251        C377   1.487       .  S
O252       Cr268   2.028       .  S
O253       Cr268   1.973       .  S
O253        C254   1.260       .  A
C254        O663   1.264   1_545  A
C254        C773   1.470   1_545  S
O255       Cr269   1.989       .  S
O255        C662   1.259       .  A
O256       Cr677   1.971   1_545  S
O256        C257   1.262       .  A
C257        C401   1.463       .  S
O258       Cr267   1.986       .  S
O258        C674   1.263   1_545  A
O259       Cr267   2.031       .  S
O259        C260   1.270       .  A
C260        O261   1.257       .  A
C260        C405   1.474       .  S
O261       Cr268   1.957       .  S
O262       Cr676   2.036       .  S
O262        C263   1.271       .  A
C263        O264   1.261       .  A
C263        C382   1.471       .  S
O264       Cr269   1.966       .  S
O265       Cr269   2.001       .  S
O265        C266   1.260       .  A
C266        O666   1.261       .  A
C266        C362   1.472       .  S
Cr267       O270   1.778       .  S
Cr268       O670   2.027   1_545  S
Cr268       O270   1.782       .  S
Cr269       O664   1.954       .  S
Cr269       O678   1.766       .  S
O270       Cr677   1.777   1_545  S
O271       Cr289   2.006       .  S
O271        C279   1.266       .  A
O272       Cr289   1.979       .  S
O272        C273   1.257       .  A
C273        O274   1.267       .  A
C273        C353   1.484       .  S
O274       Cr290   2.031       .  S
O275       Cr290   1.970       .  S
O275        C276   1.259       .  A
C276        O277   1.262       .  A
C276        C369   1.465       .  S
O277       Cr291   1.997       .  S
O278       Cr291   1.976       .  S
O278        C279   1.263       .  A
C279        C349   1.465       .  S
O280       Cr289   1.983       .  S
O280        C288   1.263       .  A
O281       Cr289   2.035       .  S
O281        C282   1.271       .  A
C282        O283   1.255       .  A
C282        C345   1.474       .  S
O283       Cr290   1.952       .  S
O284       Cr290   2.032       .  S
O284        C285   1.269       .  A
C285        O286   1.262       .  A
C285        C357   1.479       .  S
O286       Cr291   1.977       .  S
O287       Cr291   1.993       .  S
O287        C288   1.259       .  A
C288        C373   1.470       .  S
Cr289       O292   1.776       .  S
Cr290       O292   1.779       .  S
Cr291       O292   1.775       .  S
O293       Cr311   1.947       .  S
O293        C301   1.255       .  A
O294       Cr311   2.041       .  S
O294        C295   1.285       .  A
C295        O296   1.275       .  A
C295        C354   1.482       .  S
O296       Cr312   1.979       .  S
O297       Cr312   1.993       .  S
O297        C298   1.250       .  A
C298        O299   1.249       .  A
C298        C361   1.472       .  S
O299       Cr313   1.977       .  S
O300       Cr313   2.015       .  S
O300        C301   1.268       .  A
C301        C338   1.483       .  S
O302       Cr311   2.014       .  S
O302        C310   1.265       .  A
O303       Cr311   1.962       .  S
O303        C304   1.246       .  A
C304        O713   1.246       .  A
C304        C366   1.458       .  S
O305       Cr720   2.006       .  S
O305        C712   1.247       .  A
O306       Cr720   1.977   1_545  S
O306        C307   1.275       .  A
C307        O716   1.287   1_545  A
C307        C341   1.474       .  S
O308       Cr313   2.034       .  S
O308        C715   1.283       .  A
O309       Cr313   1.950       .  S
O309        C310   1.254       .  A
C310       C1174   1.482   1_455  S
Cr311       O314   1.763       .  S
Cr312       O713   1.989       .  S
Cr312       O714   1.973       .  S
Cr312       O314   1.790       .  S
Cr313       O314   1.770       .  S
O315       Cr333   1.953       .  S
O315        C323   1.253       .  A
O316       Cr333   2.017       .  S
O316        C317   1.270       .  A
C317        O318   1.259       .  A
C317        C337   1.471       .  S
O318      Cr1150   1.976   1_455  S
O319       Cr334   2.053       .  S
O319       C1136   1.273       .  A
C320       O1135   1.273   1_455  A
C320        O321   1.252       .  A
C320       C1202   1.486       .  S
O321       Cr335   1.967       .  S
O322       Cr335   2.037       .  S
O322        C323   1.269       .  A
C323        C350   1.477       .  S
O324       Cr333   2.044       .  S
O324        C332   1.273       .  A
O325       Cr333   1.978       .  S
O325       C1142   1.261   1_455  A
C326       O1141   1.262       .  A
C326        O327   1.278       .  A
C326        C390   1.497       .  S
O327       Cr334   2.052       .  S
O328       Cr334   1.963       .  S
O328        C329   1.259       .  A
C329        O330   1.274       .  A
C329        C346   1.477       .  S
O330      Cr1151   2.046       .  S
O331       Cr335   1.948       .  S
O331        C332   1.255       .  A
C332        C342   1.483       .  S
Cr333       O336   1.767       .  S
Cr334      O1134   1.983       .  S
Cr334      O1152   1.763       .  S
Cr335      O1146   2.043   1_455  S
Cr335       O336   1.765       .  S
O336      Cr1150   1.765   1_455  S
C337        C338   1.354       .  D
C337        H339   1.087       .  S
C338        H340   1.086       .  S
C341        C342   1.353       .  D
C341        H343   1.087       .  S
C342        H344   1.086       .  S
C345        C754   1.345       .  D
C345        H347   1.086       .  S
C346        C753   1.350   1_545  D
C346        H348   1.088       .  S
C349        C350   1.344       .  D
C349        H351   1.087       .  S
C350        H352   1.086       .  S
C353        C354   1.346       .  D
C353        H355   1.086       .  S
C354        H356   1.087       .  S
C357        C358   1.354       .  D
C357        H359   1.088       .  S
C358       C1126   1.489       .  S
C358       H1176   1.086       .  S
H360       C1174   1.086       .  S
C361        C362   1.340       .  D
C361        H363   1.088       .  S
C362        H772   1.086       .  S
H364        C770   1.086       .  S
C365        C662   1.455       .  S
C365        H367   1.089       .  S
C366        H776   1.086       .  S
H368        C774   1.087   1_554  S
C369        H371   1.088       .  S
C370        H372   1.086       .  S
C373        C374   1.341       .  D
C373        H375   1.087       .  S
C374        H376   1.088       .  S
C377        C378   1.347       .  D
C377        H379   1.086       .  S
C378        H380   1.087       .  S
C381       C1198   1.355       .  D
C381        H383   1.086       .  S
C382       C1197   1.350   1_455  D
C382        H384   1.087       .  S
C385        C386   1.340       .  D
C385        H387   1.087       .  S
C386       C1136   1.484       .  S
C386       H1204   1.087       .  S
H388       C1202   1.087       .  S
C389       H1207   1.086       .  S
C390        H392   1.086       .  S
H391       C1205   1.086       .  S
C393        C394   1.353       .  D
C393        H395   1.087       .  S
C394        H396   1.087       .  S
C397        C630   1.480       .  S
C397        C398   1.350       .  D
C397        H807   1.086       .  S
C398        H400   1.087       .  S
H399        C805   1.086       .  S
C401        C402   1.342       .  D
C401        H403   1.087       .  S
C402        H404   1.087       .  S
C405        C406   1.344       .  D
C405        H407   1.086       .  S
C406        H408   1.089       .  S
O409       Cr427   1.955       .  S
O409        C417   1.254       .  A
O410       Cr427   2.009       .  S
O410        C411   1.267       .  A
C411        O412   1.261       .  A
C411        C597   1.471       .  S
O412       Cr428   1.985       .  S
O413       Cr428   2.043       .  S
O413        C414   1.272       .  A
C414        O415   1.252       .  A
C414        C589   1.486       .  S
O415       Cr429   1.967       .  S
O416       Cr429   2.001       .  S
O416        C417   1.261       .  A
C417        C606   1.458       .  S
O418       Cr427   2.034       .  S
O418        C426   1.270       .  A
O419       Cr427   1.977       .  S
O419        C420   1.261       .  A
C420       O1237   1.279       .  A
C420        C593   1.503       .  S
O421      Cr1244   2.043   1_455  S
O421       C1236   1.273   1_455  A
O422      Cr1244   1.979   1_455  S
O422        C423   1.266       .  A
C423       O1240   1.267   1_455  A
C423        C610   1.466       .  S
O424       Cr429   2.009       .  S
O424       C1239   1.266       .  A
O425       Cr429   1.948       .  S
O425        C426   1.256       .  A
Cr427       O430   1.780       .  S
Cr428      O1237   2.057       .  S
Cr428      O1238   1.984       .  S
Cr428       O430   1.772       .  S
Cr429       O430   1.768       .  S
O431       Cr449   1.960       .  S
O431        C439   1.259       .  A
O432       Cr449   2.053       .  S
O432        C433   1.289       .  A
C433        O434   1.278       .  A
C433        C582   1.484       .  S
O434       Cr450   1.975       .  S
O435       Cr450   1.999       .  S
O435        C436   1.249       .  A
C436        O437   1.248       .  A
C436        C578   1.478       .  S
O437       Cr451   1.977       .  S
O438       Cr451   2.006       .  S
O438        C439   1.267       .  A
C439        C598   1.482       .  S
O440       Cr449   2.014       .  S
O440        C448   1.264       .  A
O441       Cr449   1.977       .  S
O441        C442   1.244       .  A
C442        O443   1.245       .  A
C442        C574   1.456       .  S
O443       Cr450   1.992       .  S
O444       Cr450   1.966       .  S
O444        C445   1.273       .  A
C445        O446   1.285       .  A
C445        C602   1.465       .  S
O446       Cr451   2.030       .  S
O447       Cr451   1.960       .  S
O447        C448   1.254       .  A
C448        C585   1.485       .  S
Cr449       O452   1.758       .  S
Cr450       O452   1.788       .  S
Cr451       O452   1.767       .  S
O453       Cr471   2.013       .  S
O453        C461   1.269       .  A
O454       Cr471   1.980       .  S
O454        C455   1.258       .  A
C455        O456   1.270       .  A
C455        C581   1.489       .  S
O456       Cr472   2.039       .  S
O457       Cr472   1.974       .  S
O457        C458   1.259       .  A
O459       Cr473   2.013       .  S
O460        C461   1.257       .  A
C461        C605   1.456       .  S
O462       Cr471   1.987       .  S
O463       Cr471   2.042       .  S
O463        C464   1.272       .  A
C464        O465   1.256       .  A
C464        C609   1.476       .  S
O465       Cr472   1.948       .  S
O466        C467   1.266       .  A
C467        O468   1.259       .  A
C467        C586   1.473       .  S
O468       Cr473   1.970       .  S
O469       Cr473   2.003       .  S
O469        C470   1.262       .  A
C470        C566   1.479       .  S
Cr471       O474   1.772       .  S
Cr472       O474   1.763       .  S
O475       Cr493   2.001       .  S
O475        C483   1.264       .  A
O476       Cr493   1.985       .  S
O476        C477   1.256       .  A
C477        O478   1.266       .  A
C477        C557   1.485       .  S
O478       Cr494   2.030       .  S
O479       Cr494   1.974       .  S
O479        C480   1.261       .  A
C480        O481   1.263       .  A
C480        C573   1.470       .  S
O481       Cr495   2.001       .  S
O482       Cr495   1.982       .  S
O482        C483   1.264       .  A
C483        C553   1.468       .  S
O484       Cr493   1.984       .  S
O484        C492   1.262       .  A
O485       Cr493   2.029       .  S
O485        C486   1.270       .  A
C486        O487   1.258       .  A
C486        C549   1.479   1_565  S
O487       Cr494   1.958       .  S
O488       Cr494   2.031       .  S
O488        C489   1.267       .  A
C489        O490   1.264       .  A
C489        C561   1.483       .  S
O490       Cr495   1.984       .  S
O491       Cr495   1.998       .  S
O491        C492   1.260       .  A
C492        C577   1.474       .  S
Cr493       O496   1.781       .  S
Cr494       O496   1.782       .  S
Cr495       O496   1.776       .  S
O497       Cr515   1.961       .  S
O497        C505   1.258       .  A
O498       Cr515   2.058       .  S
O498        C499   1.292       .  A
C499        O500   1.279       .  A
C499        C558   1.488       .  S
O500       Cr516   1.974       .  S
O501       Cr516   2.001   1_545  S
O501        C502   1.249   1_545  A
C502        O503   1.247       .  A
C502        C565   1.481       .  S
O503       Cr517   1.980       .  S
O504       Cr517   2.009       .  S
O504        C505   1.268       .  A
C505        C542   1.481       .  S
O506       Cr515   2.026       .  S
O506        C514   1.268       .  A
O507       Cr515   1.980       .  S
O507        C508   1.244       .  A
C508        C570   1.463   1_565  S
O510        C511   1.273       .  A
C511        C545   1.469       .  S
O512       Cr517   2.036       .  S
O513       Cr517   1.960       .  S
O513        C514   1.254       .  A
C514       C1378   1.494   1_455  S
Cr515       O518   1.757       .  S
Cr516       O518   1.786       .  S
Cr517       O518   1.765       .  S
O519       Cr537   1.963       .  S
O519        C527   1.255       .  A
O520       Cr537   2.019       .  S
O520        C521   1.270       .  A
C521        O522   1.259       .  A
C521        C541   1.473       .  S
O522      Cr1354   1.973   1_455  S
O523       Cr538   2.049       .  S
O523       C1340   1.273       .  A
C524       O1339   1.272   1_455  A
C524        O525   1.252       .  A
C524       C1406   1.475       .  S
O525       Cr539   1.960       .  S
O526       Cr539   2.034       .  S
O526        C527   1.268       .  A
C527        C554   1.477       .  S
O528       Cr537   2.040       .  S
O528        C536   1.272       .  A
O529       Cr537   1.979       .  S
O529       C1346   1.262   1_455  A
C530       O1345   1.263       .  A
C530        O531   1.278       .  A
C530        C594   1.502       .  S
O531       Cr538   2.051       .  S
O532       Cr538   1.971       .  S
O532        C533   1.261       .  A
C533        O534   1.271       .  A
C533        C550   1.480       .  S
O534      Cr1355   2.037       .  S
O535       Cr539   1.944       .  S
O535        C536   1.255       .  A
C536        C546   1.476       .  S
Cr537       O540   1.767       .  S
Cr538      O1338   1.975       .  S
Cr538      O1356   1.764       .  S
Cr539      O1350   2.047   1_455  S
Cr539       O540   1.764       .  S
O540      Cr1354   1.762   1_455  S
C541        C542   1.353       .  D
C541        H543   1.087       .  S
C542        H544   1.086       .  S
C545        C546   1.351       .  D
C545        H547   1.087       .  S
C546        H548   1.086       .  S
C549        H551   1.086       .  S
C550        H552   1.088       .  S
C553        C554   1.342       .  D
C553        H555   1.087       .  S
C554        H556   1.086       .  S
C557        C558   1.349       .  D
C557        H559   1.086       .  S
C558        H560   1.087       .  S
C561        C562   1.358       .  D
C561        H563   1.087       .  S
C562       C1330   1.494       .  S
C562       H1380   1.086       .  S
H564       C1378   1.086       .  S
C565        C566   1.344       .  D
C565        H567   1.088   1_565  S
C569        C774   1.341   1_554  D
C569        H571   1.087   1_545  S
C570        C773   1.339   1_545  D
C573        C778   1.338       .  D
C573        H575   1.088       .  S
C574        C777   1.337   1_554  D
C574        H576   1.087   1_554  S
C577        C578   1.342       .  D
C577        H579   1.087       .  S
C578        H580   1.088       .  S
C581        C582   1.349       .  D
C581        H583   1.087       .  S
C582        H584   1.087       .  S
C585       C1402   1.352       .  D
C585        H587   1.086       .  S
C586       C1401   1.350       .  D
C586        H588   1.088       .  S
C589        C590   1.341       .  D
C589        H591   1.087       .  S
C590       C1340   1.482       .  S
C590       H1408   1.087       .  S
H592       C1406   1.088       .  S
C593        C798   1.362   1_554  D
C593       H1411   1.086       .  S
C594        C797   1.361       .  D
C594        H596   1.086       .  S
H595       C1409   1.086       .  S
C597        C598   1.351       .  D
C597        H599   1.087       .  S
C598        H600   1.087       .  S
C601        C602   1.350       .  D
C602        H604   1.087       .  S
C605        C606   1.336       .  D
C605        H607   1.088       .  S
C606        H608   1.086       .  S
C609        C610   1.344       .  D
C609        H611   1.086       .  S
C610        H612   1.087       .  S
O613       Cr631   1.955       .  S
O613        C621   1.254       .  A
O614       Cr631   2.009       .  S
O614        C615   1.269       .  A
C615        O616   1.262       .  A
C615        C801   1.472       .  S
O616       Cr632   1.987       .  S
O617       Cr632   2.048       .  S
O617        C618   1.274       .  A
C618        O619   1.252       .  A
C618        C793   1.487       .  S
O619       Cr633   1.964       .  S
O620       Cr633   2.004       .  S
O620        C621   1.261       .  A
C621        C810   1.463       .  S
O622       Cr631   2.036       .  S
O622        C630   1.271       .  A
O623       Cr631   1.978       .  S
O623        C624   1.261       .  A
C624       O1441   1.278       .  A
C624        C797   1.503       .  S
O625      Cr1448   2.029       .  S
O625       C1440   1.269       .  A
O626      Cr1448   1.955   1_455  S
O626        C627   1.261       .  A
C627       O1444   1.275   1_455  A
C627        C814   1.466       .  S
O628       Cr633   2.008       .  S
O628       C1443   1.266       .  A
O629       Cr633   1.945       .  S
O629        C630   1.255       .  A
Cr631       O634   1.774       .  S
Cr632      O1441   2.058       .  S
Cr632      O1442   1.986       .  S
Cr632       O634   1.771       .  S
Cr633       O634   1.767       .  S
O635       Cr653   1.954       .  S
O635        C643   1.257       .  A
O636       Cr653   2.055       .  S
O636        C637   1.289       .  A
C637        O638   1.277       .  A
C637        C786   1.489       .  S
O638       Cr654   1.980       .  S
O639       Cr654   1.999       .  S
O639        C640   1.250       .  A
C640        O641   1.250       .  A
C640        C782   1.478       .  S
O641       Cr655   1.979       .  S
O642       Cr655   2.014       .  S
O642        C643   1.268       .  A
C643        C802   1.486       .  S
O644       Cr653   2.022       .  S
O644        C652   1.268       .  A
O645       Cr653   1.982       .  S
O645        C646   1.246       .  A
C646        O647   1.246       .  A
C646        C778   1.463       .  S
O647       Cr654   1.994       .  S
O648       Cr654   1.975       .  S
O648        C649   1.273       .  A
C649        O650   1.285       .  A
C649        C806   1.472       .  S
O650       Cr655   2.033       .  S
O651       Cr655   1.959       .  S
O651        C652   1.255       .  A
C652        C789   1.489       .  S
Cr653       O656   1.759       .  S
Cr654       O656   1.790       .  S
Cr655       O656   1.770       .  S
O657       Cr675   2.021       .  S
O657        C665   1.271       .  A
O658       Cr675   1.984       .  S
O658        C659   1.258       .  A
C659        O660   1.269       .  A
C659        C785   1.493       .  S
O660       Cr676   2.037       .  S
O661       Cr676   1.977       .  S
O661        C662   1.260       .  A
O663       Cr677   2.004       .  S
O664        C665   1.257       .  A
C665        C809   1.456       .  S
O666       Cr675   1.978       .  S
O667       Cr675   2.044       .  S
O667        C668   1.274       .  A
C668        O669   1.255       .  A
C668        C813   1.482       .  S
O669       Cr676   1.944       .  S
O670        C671   1.267       .  A
C671        O672   1.260       .  A
C671        C790   1.474       .  S
O672       Cr677   1.972       .  S
O673       Cr677   1.998       .  S
O673        C674   1.260       .  A
C674        C770   1.475       .  S
Cr675       O678   1.772       .  S
Cr676       O678   1.766       .  S
O679       Cr697   2.035       .  S
O679        C687   1.271       .  A
O680       Cr697   1.990       .  S
O680        C681   1.257       .  A
C681        O682   1.266       .  A
C681        C761   1.489       .  S
O682       Cr698   2.031       .  S
O683       Cr698   1.968       .  S
O683        C684   1.259       .  A
C684        O685   1.263       .  A
C684        C777   1.464       .  S
O685       Cr699   2.000       .  S
O686       Cr699   1.959       .  S
O686        C687   1.258       .  A
C687        C757   1.470       .  S
O688       Cr697   1.982       .  S
O688        C696   1.262       .  A
O689       Cr697   2.052       .  S
O689        C690   1.277       .  A
C690        O691   1.258       .  A
C690        C753   1.486       .  S
O691       Cr698   1.951       .  S
O692       Cr698   2.037       .  S
O692        C693   1.269       .  A
C693        O694   1.262       .  A
C693        C765   1.481       .  S
O694       Cr699   1.976       .  S
O695       Cr699   1.998       .  S
O695        C696   1.260       .  A
C696        C781   1.474       .  S
Cr697       O700   1.780       .  S
Cr698       O700   1.777       .  S
Cr699       O700   1.771       .  S
O701       Cr719   1.952       .  S
O701        C709   1.256       .  A
O702       Cr719   2.062       .  S
O702        C703   1.292       .  A
C703        O704   1.276       .  A
C703        C762   1.490       .  S
O704       Cr720   1.972       .  S
O705       Cr720   2.000   1_545  S
O705        C706   1.250   1_545  A
C706        O707   1.249       .  A
C706        C769   1.478       .  S
O707       Cr721   1.976       .  S
O708       Cr721   2.014       .  S
O708        C709   1.269       .  A
C709        C746   1.483       .  S
O710       Cr719   2.018       .  S
O710        C718   1.266       .  A
O711       Cr719   1.978       .  S
O711        C712   1.243       .  A
C712        C774   1.465   1_565  S
O714        C715   1.272       .  A
C715        C749   1.473       .  S
O716       Cr721   2.036       .  S
O717       Cr721   1.952       .  S
O717        C718   1.253       .  A
C718       C1582   1.485   1_455  S
Cr719       O722   1.756       .  S
Cr720       O722   1.787       .  S
Cr721       O722   1.768       .  S
O723       Cr741   1.956       .  S
O723        C731   1.255       .  A
O724       Cr741   2.013       .  S
O724        C725   1.271       .  A
C725        O726   1.262       .  A
C725        C745   1.471       .  S
O726      Cr1558   1.982   1_455  S
O727       Cr742   2.055       .  S
O727       C1544   1.275       .  A
C728       O1543   1.263       .  A
C728        O729   1.253   1_655  A
C728       C1610   1.477       .  S
O729       Cr743   1.969       .  S
O730       Cr743   2.027       .  S
O730        C731   1.267       .  A
C731        C758   1.484       .  S
O732       Cr741   2.027       .  S
O732        C740   1.270       .  A
O733       Cr741   1.992       .  S
O733       C1550   1.261       .  A
C734       O1549   1.261       .  A
C734        O735   1.279       .  A
C734        C798   1.504       .  S
O735       Cr742   2.057       .  S
O736       Cr742   1.963       .  S
O736        C737   1.259       .  A
C737        O738   1.271       .  A
C737        C754   1.471       .  S
O738      Cr1559   2.035       .  S
O739       Cr743   1.951       .  S
O739        C740   1.257       .  A
C740        C750   1.480       .  S
Cr741       O744   1.774       .  S
Cr742      O1542   1.974       .  S
Cr742      O1560   1.761       .  S
Cr743      O1554   2.041   1_455  S
Cr743       O744   1.771       .  S
O744      Cr1558   1.770   1_455  S
C745        C746   1.354       .  D
C745        H747   1.086       .  S
C746        H748   1.086       .  S
C749        C750   1.351       .  D
C749        H751   1.087       .  S
C750        H752   1.087       .  S
C753        H755   1.086   1_565  S
C754        H756   1.089       .  S
C757        C758   1.347       .  D
C757        H759   1.088       .  S
C758        H760   1.086       .  S
C761        C762   1.351       .  D
C761        H763   1.086       .  S
C762        H764   1.086       .  S
C765        C766   1.355       .  D
C765        H767   1.087       .  S
C766       C1534   1.491       .  S
C766       H1584   1.086       .  S
H768       C1582   1.086       .  S
C769        C770   1.343       .  D
C769        H771   1.088   1_565  S
C773        H775   1.088       .  S
C777        H779   1.088       .  S
C778        H780   1.086       .  S
C781        C782   1.342       .  D
C781        H783   1.087       .  S
C782        H784   1.088       .  S
C785        C786   1.351       .  D
C785        H787   1.086       .  S
C786        H788   1.087       .  S
C789       C1606   1.355       .  D
C789        H791   1.086       .  S
C790       C1605   1.351       .  D
C790        H792   1.087       .  S
C793        C794   1.341       .  D
C793        H795   1.087       .  S
C794       C1544   1.484       .  S
C794       H1612   1.087       .  S
H796       C1610   1.087       .  S
C797       H1615   1.086       .  S
C798        H800   1.086       .  S
H799       C1613   1.087   1_455  S
C801        C802   1.353       .  D
C801        H803   1.087       .  S
C802        H804   1.086       .  S
C805        C806   1.352       .  D
C806        H808   1.087       .  S
C809        C810   1.337       .  D
C809        H811   1.088       .  S
C810        H812   1.086       .  S
C813        C814   1.349       .  D
C813        H815   1.086       .  S
C814        H816   1.088       .  S
O817       Cr835   1.956       .  S
O817        C825   1.254       .  A
O818       Cr835   2.020       .  S
O818        C819   1.269       .  A
C819        O820   1.259       .  A
C819       C1005   1.477       .  S
O820       Cr836   1.980       .  S
O821       Cr836   2.040       .  S
O821        C822   1.272       .  A
C822        O823   1.253       .  A
C822        C997   1.480       .  S
O823       Cr837   1.967       .  S
O824       Cr837   2.031       .  S
O824        C825   1.267       .  A
C825       C1014   1.473       .  S
O826       Cr835   2.043       .  S
O826        C834   1.273       .  A
O827       Cr835   1.978       .  S
O827        C828   1.262       .  A
C828       C1001   1.497   1_655  S
O830        C831   1.259       .  A
C831       C1018   1.473       .  S
O832       Cr837   2.035       .  S
O833       Cr837   1.949       .  S
O833        C834   1.255       .  A
C834       C1417   1.483   1_545  S
Cr835       O838   1.768       .  S
Cr836       O838   1.764       .  S
Cr837       O838   1.768       .  S
O839       Cr857   1.960       .  S
O839        C847   1.256       .  A
O840       Cr857   2.048       .  S
O840        C841   1.289       .  A
C841        O842   1.277       .  A
C841        C990   1.483       .  S
O842       Cr858   1.971       .  S
O843       Cr858   1.990       .  S
O843        C844   1.247       .  A
C844        O845   1.249       .  A
C844        C986   1.469       .  S
O845       Cr859   1.976       .  S
O846       Cr859   2.012       .  S
O846        C847   1.267       .  A
C847       C1006   1.485       .  S
O848       Cr857   2.013       .  S
O848        C856   1.266       .  A
O849       Cr857   1.967       .  S
O849        C850   1.244       .  A
C850        O851   1.243       .  A
C850        C982   1.456       .  S
O851       Cr858   1.986       .  S
O852       Cr858   1.976       .  S
O852        C853   1.275       .  A
C853        O854   1.284       .  A
C853       C1010   1.471       .  S
O854       Cr859   2.031       .  S
O855       Cr859   1.958       .  S
O855        C856   1.256       .  A
C856        C993   1.485       .  S
Cr857       O860   1.760       .  S
Cr858       O860   1.788       .  S
Cr859       O860   1.767       .  S
O861       Cr879   2.005       .  S
O861        C869   1.265       .  A
O862       Cr879   1.982       .  S
O862        C863   1.256       .  A
C863        O864   1.265       .  A
C863        C989   1.480       .  S
O864       Cr880   2.026       .  S
O865       Cr880   1.968       .  S
O865        C866   1.258       .  A
C866       O1275   1.264   1_545  A
C866       C1385   1.468   1_545  S
O867       Cr881   1.981       .  S
O867       C1274   1.258       .  A
O868      Cr1289   1.973   1_545  S
O868        C869   1.262       .  A
C869       C1013   1.464       .  S
O870       Cr879   1.985       .  S
O870       C1286   1.263   1_545  A
O871       Cr879   2.034       .  S
O871        C872   1.271       .  A
C872        O873   1.257       .  A
C872       C1017   1.478       .  S
O873       Cr880   1.956       .  S
O874      Cr1288   2.035       .  S
O874        C875   1.270       .  A
C875        O876   1.262       .  A
C875        C994   1.472       .  S
O876       Cr881   1.970       .  S
O877       Cr881   1.993       .  S
O877        C878   1.260       .  A
C878       O1278   1.265       .  A
C878        C974   1.472       .  S
Cr879       O882   1.776       .  S
Cr880      O1282   2.027   1_545  S
Cr880       O882   1.781       .  S
Cr881      O1276   1.959       .  S
Cr881      O1290   1.762       .  S
O882      Cr1289   1.777   1_545  S
O883       Cr901   2.037       .  S
O883        C891   1.273       .  A
O884       Cr901   1.979       .  S
O884        C885   1.256       .  A
C885        O886   1.269       .  A
C885        C965   1.488       .  S
O886       Cr902   2.038       .  S
O887       Cr902   1.978       .  S
O887        C888   1.260       .  A
C888        O889   1.261       .  A
C888        C981   1.460       .  S
O889       Cr903   1.993       .  S
O890       Cr903   1.954       .  S
O890        C891   1.257       .  A
C891        C961   1.464       .  S
O892       Cr901   1.975       .  S
O892        C900   1.261       .  A
O893       Cr901   2.059       .  S
O893        C894   1.278       .  A
C894        O895   1.255       .  A
C894        C957   1.487       .  S
O895       Cr902   1.945       .  S
O896       Cr902   2.037       .  S
O896        C897   1.271       .  A
C897        O898   1.260       .  A
C897        C969   1.470       .  S
O898       Cr903   1.964       .  S
O899       Cr903   1.998       .  S
O899        C900   1.259       .  A
C900        C985   1.467       .  S
Cr901       O904   1.771       .  S
Cr902       O904   1.769       .  S
Cr903       O904   1.765       .  S
O905       Cr923   1.951       .  S
O905        C913   1.256       .  A
O906       Cr923   2.049       .  S
O906        C907   1.289       .  A
C907        O908   1.280       .  A
C907        C966   1.486       .  S
O908       Cr924   1.981       .  S
O909       Cr924   1.994       .  S
O909        C910   1.247       .  A
C910        O911   1.248       .  A
C910        C973   1.477       .  S
O911       Cr925   1.977       .  S
O912       Cr925   2.011       .  S
O912        C913   1.267       .  A
C913        C950   1.481       .  S
O914       Cr923   2.015       .  S
O914        C922   1.265       .  A
O915       Cr923   1.969       .  S
O915        C916   1.245       .  A
C916       O1325   1.243       .  A
C916        C978   1.457       .  S
O917      Cr1332   1.996       .  S
O917       C1324   1.245       .  A
O918      Cr1332   1.973   1_545  S
O918        C919   1.275       .  A
C919       O1328   1.286   1_545  A
C919        C953   1.470       .  S
O920       Cr925   2.033       .  S
O920       C1327   1.286       .  A
O921       Cr925   1.958       .  S
O921        C922   1.254       .  A
Cr923       O926   1.758       .  S
Cr924      O1325   1.983       .  S
Cr924      O1326   1.969       .  S
Cr924       O926   1.786       .  S
Cr925       O926   1.768       .  S
O927       Cr945   1.947       .  S
O927        C935   1.254       .  A
O928       Cr945   2.014       .  S
O928        C929   1.271       .  A
C929        O930   1.261       .  A
C929        C949   1.467       .  S
O931       Cr946   2.039       .  S
C932        O933   1.248       .  A
O933       Cr947   1.960       .  S
O934       Cr947   2.028       .  S
O934        C935   1.268       .  A
C935        C962   1.476       .  S
O936       Cr945   2.034       .  S
O936        C944   1.271       .  A
O937       Cr945   1.980       .  S
C938        O939   1.277       .  A
C938       C1002   1.496       .  S
O939       Cr946   2.050       .  S
O940       Cr946   1.961       .  S
O940        C941   1.259       .  A
C941        O942   1.272       .  A
C941        C958   1.473       .  S
O943       Cr947   1.944       .  S
O943        C944   1.254       .  A
C944        C954   1.479       .  S
Cr945       O948   1.768       .  S
Cr947       O948   1.764       .  S
C949        C950   1.353       .  D
C949        H951   1.087       .  S
C950        H952   1.086       .  S
C953        C954   1.351       .  D
C953        H955   1.087       .  S
C954        H956   1.086       .  S
C957       C1366   1.352       .  D
C957        H959   1.085       .  S
C958       C1365   1.344       .  D
C958        H960   1.089       .  S
C961        C962   1.345       .  D
C961        H963   1.088       .  S
C962        H964   1.086       .  S
C965        C966   1.349       .  D
C965        H967   1.086       .  S
C966        H968   1.087       .  S
C969        C970   1.349       .  D
C969        H971   1.088       .  S
C973        C974   1.340       .  D
C973        H975   1.087       .  S
C974       H1384   1.087       .  S
H976       C1382   1.087       .  S
C977       C1274   1.454       .  S
C977       C1182   1.330   1_554  D
C977        H979   1.089       .  S
C978       C1181   1.333       .  D
C978       H1388   1.086       .  S
H980       C1386   1.086       .  S
C981       C1186   1.335       .  D
C981        H983   1.089       .  S
C982       C1185   1.335   1_554  D
C982        H984   1.086       .  S
C985        C986   1.339       .  D
C985        H987   1.087       .  S
C986        H988   1.088       .  S
C989        C990   1.346       .  D
C989        H991   1.086       .  S
C990        H992   1.087       .  S
C993        H995   1.086   1_655  S
C994        H996   1.087       .  S
C997        C998   1.341   1_655  D
C997        H999   1.087       .  S
C1001      C1206   1.358   1_454  D
C1002      C1205   1.358   1_655  D
C1002      H1004   1.086       .  S
C1005      C1006   1.354       .  D
C1005      H1007   1.087       .  S
C1006      H1008   1.087       .  S
C1009      C1242   1.479       .  S
C1009      C1010   1.348       .  D
C1009      H1419   1.087       .  S
C1010      H1012   1.087       .  S
H1011      C1417   1.086       .  S
C1013      C1014   1.343       .  D
C1013      H1015   1.087       .  S
C1014      H1016   1.086       .  S
C1017      C1018   1.346       .  D
C1017      H1019   1.085       .  S
C1018      H1020   1.088       .  S
O1021     Cr1039   1.955       .  S
O1021      C1029   1.254       .  A
O1022     Cr1039   2.016       .  S
O1022      C1023   1.269       .  A
C1023      O1024   1.259       .  A
C1023      C1209   1.474       .  S
O1024     Cr1040   1.980       .  S
O1025     Cr1040   2.051       .  S
O1025      C1026   1.275       .  A
C1026      O1027   1.254       .  A
C1026      C1201   1.487       .  S
O1027     Cr1041   1.965       .  S
O1028     Cr1041   2.033       .  S
O1028      C1029   1.268       .  A
C1029      C1218   1.473       .  S
O1030     Cr1039   2.042       .  S
O1030      C1038   1.272       .  A
O1031     Cr1039   1.975       .  S
O1031      C1032   1.261       .  A
C1032      C1205   1.497   1_655  S
O1034      C1035   1.259       .  A
C1035      C1222   1.474       .  S
O1036     Cr1041   2.034       .  S
O1037     Cr1041   1.948       .  S
O1037      C1038   1.254       .  A
C1038      C1621   1.479   1_545  S
Cr1039     O1042   1.768       .  S
Cr1040     O1042   1.762       .  S
Cr1041     O1042   1.765       .  S
O1043     Cr1061   1.949       .  S
O1043      C1051   1.254       .  A
O1044     Cr1061   2.040       .  S
O1044      C1045   1.284       .  A
C1045      O1046   1.275       .  A
C1045      C1194   1.484       .  S
O1046     Cr1062   1.981       .  S
O1047     Cr1062   1.994       .  S
O1047      C1048   1.251       .  A
C1048      O1049   1.250       .  A
C1048      C1190   1.472       .  S
O1049     Cr1063   1.977       .  S
O1050     Cr1063   2.017       .  S
O1050      C1051   1.267       .  A
C1051      C1210   1.485       .  S
O1052     Cr1061   2.014       .  S
O1052      C1060   1.265       .  A
O1053     Cr1061   1.964       .  S
O1053      C1054   1.246       .  A
C1054      O1055   1.247       .  A
C1054      C1186   1.461       .  S
O1055     Cr1062   1.992       .  S
O1056     Cr1062   1.981       .  S
O1056      C1057   1.273       .  A
C1057      O1058   1.282       .  A
C1057      C1214   1.477       .  S
O1058     Cr1063   2.032       .  S
O1059     Cr1063   1.951       .  S
O1059      C1060   1.255       .  A
C1060      C1197   1.482       .  S
Cr1061     O1064   1.766       .  S
Cr1062     O1064   1.792       .  S
Cr1063     O1064   1.773       .  S
O1065     Cr1083   2.003       .  S
O1065      C1073   1.266       .  A
O1066     Cr1083   1.982       .  S
O1066      C1067   1.256       .  A
C1067      O1068   1.266       .  A
C1067      C1193   1.485       .  S
O1068     Cr1084   2.029       .  S
O1069     Cr1084   1.970       .  S
O1069      C1070   1.259       .  A
C1070      O1479   1.264   1_545  A
C1070      C1589   1.469   1_545  S
O1071     Cr1085   1.991       .  S
O1071      C1478   1.260       .  A
O1072     Cr1493   1.976   1_545  S
O1072      C1073   1.263       .  A
C1073      C1217   1.466       .  S
O1074     Cr1083   1.983       .  S
O1074      C1490   1.262   1_545  A
O1075     Cr1083   2.031       .  S
O1075      C1076   1.271       .  A
C1076      O1077   1.257       .  A
C1076      C1221   1.474       .  S
O1077     Cr1084   1.957       .  S
O1078     Cr1492   2.040       .  S
O1078      C1079   1.270       .  A
C1079      O1080   1.262       .  A
C1079      C1198   1.481       .  S
O1080     Cr1085   1.976       .  S
O1081     Cr1085   1.994       .  S
O1081      C1082   1.260       .  A
C1082      O1482   1.265       .  A
C1082      C1178   1.475       .  S
Cr1083     O1086   1.779       .  S
Cr1084     O1486   2.031   1_545  S
Cr1084     O1086   1.782       .  S
Cr1085     O1480   1.964       .  S
Cr1085     O1494   1.766       .  S
O1086     Cr1493   1.780   1_545  S
O1087     Cr1105   2.032       .  S
O1087      C1095   1.272       .  A
O1088     Cr1105   1.980       .  S
O1088      C1089   1.257       .  A
C1089      O1090   1.266       .  A
C1089      C1169   1.485       .  S
O1090     Cr1106   2.028       .  S
O1091     Cr1106   1.972       .  S
O1091      C1092   1.258       .  A
C1092      O1093   1.260       .  A
C1092      C1185   1.459       .  S
O1093     Cr1107   1.996       .  S
O1094     Cr1107   1.957       .  S
O1094      C1095   1.259       .  A
C1095      C1165   1.462       .  S
O1096     Cr1105   1.979       .  S
O1096      C1104   1.262       .  A
O1097     Cr1105   2.052       .  S
O1097      C1098   1.276       .  A
C1098      O1099   1.255       .  A
C1098      C1161   1.481       .  S
O1099     Cr1106   1.943       .  S
O1100     Cr1106   2.034       .  S
O1100      C1101   1.271       .  A
C1101      O1102   1.262       .  A
C1101      C1173   1.472       .  S
O1102     Cr1107   1.969       .  S
O1103     Cr1107   2.000       .  S
O1103      C1104   1.259       .  A
C1104      C1189   1.471       .  S
Cr1105     O1108   1.773       .  S
Cr1106     O1108   1.770       .  S
Cr1107     O1108   1.769       .  S
O1109     Cr1127   1.953       .  S
O1109      C1117   1.257       .  A
O1110     Cr1127   2.044       .  S
O1110      C1111   1.288       .  A
C1111      O1112   1.279       .  A
C1111      C1170   1.481       .  S
O1112     Cr1128   1.979       .  S
O1113     Cr1128   1.993       .  S
O1113      C1114   1.247       .  A
C1114      O1115   1.249       .  A
C1114      C1177   1.478       .  S
O1115     Cr1129   1.981       .  S
O1116     Cr1129   2.013       .  S
O1116      C1117   1.269       .  A
C1117      C1154   1.483       .  S
O1118     Cr1127   2.018       .  S
O1118      C1126   1.266       .  A
O1119     Cr1127   1.968       .  S
O1119      C1120   1.246       .  A
C1120      O1529   1.243       .  A
C1120      C1182   1.457       .  S
O1121     Cr1536   1.996       .  S
O1121      C1528   1.244       .  A
O1122     Cr1536   1.974   1_545  S
O1122      C1123   1.277       .  A
C1123      O1532   1.288   1_545  A
C1123      C1157   1.471       .  S
O1124     Cr1129   2.034       .  S
O1124      C1531   1.287       .  A
O1125     Cr1129   1.956       .  S
O1125      C1126   1.254       .  A
Cr1127     O1130   1.757       .  S
Cr1128     O1529   1.982       .  S
Cr1128     O1530   1.968       .  S
Cr1128     O1130   1.786       .  S
Cr1129     O1130   1.766       .  S
O1131     Cr1149   1.948       .  S
O1131      C1139   1.253       .  A
O1132     Cr1149   2.009       .  S
O1132      C1133   1.268       .  A
C1133      O1134   1.260       .  A
C1133      C1153   1.470       .  S
O1135     Cr1150   2.050       .  S
C1136      O1137   1.249       .  A
O1137     Cr1151   1.961       .  S
O1138     Cr1151   2.033       .  S
O1138      C1139   1.269       .  A
C1139      C1166   1.477       .  S
O1140     Cr1149   2.035       .  S
O1140      C1148   1.270       .  A
O1141     Cr1149   1.978       .  S
C1142      O1143   1.277       .  A
C1142      C1206   1.497       .  S
O1143     Cr1150   2.052       .  S
O1144     Cr1150   1.959       .  S
O1144      C1145   1.259       .  A
C1145      O1146   1.273       .  A
C1145      C1162   1.473       .  S
O1147     Cr1151   1.948       .  S
O1147      C1148   1.254       .  A
C1148      C1158   1.479       .  S
Cr1149     O1152   1.770       .  S
Cr1151     O1152   1.765       .  S
C1153      C1154   1.353       .  D
C1153      H1155   1.086       .  S
C1154      H1156   1.086       .  S
C1157      C1158   1.351       .  D
C1157      H1159   1.087       .  S
C1158      H1160   1.086       .  S
C1161      C1570   1.352       .  D
C1161      H1163   1.086       .  S
C1162      C1569   1.345       .  D
C1162      H1164   1.089       .  S
C1165      C1166   1.345       .  D
C1165      H1167   1.087       .  S
C1166      H1168   1.086       .  S
C1169      C1170   1.345       .  D
C1169      H1171   1.086       .  S
C1170      H1172   1.087       .  S
C1173      C1174   1.350       .  D
C1173      H1175   1.088       .  S
C1177      C1178   1.340       .  D
C1177      H1179   1.087       .  S
C1178      H1588   1.087       .  S
H1180      C1586   1.087       .  S
C1181      C1478   1.460       .  S
C1181      H1183   1.089       .  S
C1182      H1592   1.086       .  S
H1184      C1590   1.086   1_554  S
C1185      H1187   1.089       .  S
C1186      H1188   1.086       .  S
C1189      C1190   1.340       .  D
C1189      H1191   1.087       .  S
C1190      H1192   1.088       .  S
C1193      C1194   1.346       .  D
C1193      H1195   1.086       .  S
C1194      H1196   1.087       .  S
C1197      H1199   1.086   1_655  S
C1198      H1200   1.087       .  S
C1201      C1202   1.342   1_655  D
C1201      H1203   1.087       .  S
C1206      H1208   1.086       .  S
C1209      C1210   1.355       .  D
C1209      H1211   1.087       .  S
C1210      H1212   1.086       .  S
C1213      C1446   1.484       .  S
C1213      C1214   1.350       .  D
C1213      H1623   1.087       .  S
C1214      H1216   1.087       .  S
H1215      C1621   1.086       .  S
C1217      C1218   1.343       .  D
C1217      H1219   1.087       .  S
C1218      H1220   1.086       .  S
C1221      C1222   1.344       .  D
C1221      H1223   1.086       .  S
C1222      H1224   1.088       .  S
O1225     Cr1243   1.962       .  S
O1225      C1233   1.255       .  A
O1226     Cr1243   2.009       .  S
O1226      C1227   1.268       .  A
C1227      O1228   1.260       .  A
C1227      C1413   1.467       .  S
O1228     Cr1244   1.976       .  S
O1229     Cr1244   2.029       .  S
O1229      C1230   1.268       .  A
C1230      O1231   1.250       .  A
C1230      C1405   1.475       .  S
O1231     Cr1245   1.965       .  S
O1232     Cr1245   2.001       .  S
O1232      C1233   1.260       .  A
C1233      C1422   1.468       .  S
O1234     Cr1243   2.027       .  S
O1234      C1242   1.270       .  A
O1235     Cr1243   1.980       .  S
O1235      C1236   1.261       .  A
C1236      C1409   1.496   1_655  S
O1238      C1239   1.266       .  A
C1239      C1426   1.471       .  S
O1240     Cr1245   2.011       .  S
O1241     Cr1245   1.952       .  S
O1241      C1242   1.258       .  A
Cr1243     O1246   1.775       .  S
Cr1244     O1246   1.776       .  S
Cr1245     O1246   1.768       .  S
O1247     Cr1265   1.957       .  S
O1247      C1255   1.258       .  A
O1248     Cr1265   2.053       .  S
O1248      C1249   1.289       .  A
C1249      O1250   1.277       .  A
C1249      C1398   1.487       .  S
O1250     Cr1266   1.980       .  S
O1251     Cr1266   1.999       .  S
O1251      C1252   1.250       .  A
C1252      O1253   1.249       .  A
C1252      C1394   1.480       .  S
O1253     Cr1267   1.981       .  S
O1254     Cr1267   2.004       .  S
O1254      C1255   1.266       .  A
C1255      C1414   1.478       .  S
O1256     Cr1265   2.013       .  S
O1256      C1264   1.264       .  A
O1257     Cr1265   1.979       .  S
O1257      C1258   1.244       .  A
C1258      O1259   1.247       .  A
C1258      C1390   1.466       .  S
O1259     Cr1266   2.003       .  S
O1260     Cr1266   1.983       .  S
O1260      C1261   1.276       .  A
C1261      O1262   1.284       .  A
C1261      C1418   1.475       .  S
O1262     Cr1267   2.029       .  S
O1263     Cr1267   1.955       .  S
O1263      C1264   1.254       .  A
C1264      C1401   1.483   1_655  S
Cr1265     O1268   1.763       .  S
Cr1266     O1268   1.785       .  S
Cr1267     O1268   1.772       .  S
O1269     Cr1287   2.020       .  S
O1269      C1277   1.269       .  A
O1270     Cr1287   1.983       .  S
O1270      C1271   1.258       .  A
C1271      O1272   1.270       .  A
C1271      C1397   1.489       .  S
O1272     Cr1288   2.037       .  S
O1273     Cr1288   1.980       .  S
O1273      C1274   1.261       .  A
O1275     Cr1289   2.007       .  S
O1276      C1277   1.257       .  A
C1277      C1421   1.461       .  S
O1278     Cr1287   1.990       .  S
O1279     Cr1287   2.041       .  S
O1279      C1280   1.272       .  A
C1280      O1281   1.257       .  A
C1280      C1425   1.478       .  S
O1281     Cr1288   1.956       .  S
O1282      C1283   1.268       .  A
C1283      O1284   1.261       .  A
C1283      C1402   1.478       .  S
O1284     Cr1289   1.975       .  S
O1285     Cr1289   2.002       .  S
O1285      C1286   1.262       .  A
C1286      C1382   1.478       .  S
Cr1287     O1290   1.773       .  S
Cr1288     O1290   1.767       .  S
O1291     Cr1309   2.003       .  S
O1291      C1299   1.265       .  A
O1292     Cr1309   1.991       .  S
O1292      C1293   1.257       .  A
C1293      O1294   1.267       .  A
C1293      C1373   1.490       .  S
O1294     Cr1310   2.034       .  S
O1295     Cr1310   1.968       .  S
O1295      C1296   1.259       .  A
C1296      O1297   1.263       .  A
C1296      C1389   1.466       .  S
O1297     Cr1311   2.000       .  S
O1298     Cr1311   1.975       .  S
O1298      C1299   1.262       .  A
C1299      C1369   1.465       .  S
O1300     Cr1309   1.988       .  S
O1300      C1308   1.264       .  A
O1301     Cr1309   2.033       .  S
O1301      C1302   1.271       .  A
C1302      O1303   1.257       .  A
C1302      C1365   1.476   1_565  S
O1303     Cr1310   1.957       .  S
O1304     Cr1310   2.035       .  S
O1304      C1305   1.269       .  A
C1305      O1306   1.263       .  A
C1305      C1377   1.486       .  S
O1306     Cr1311   1.983       .  S
O1307     Cr1311   1.998       .  S
O1307      C1308   1.260       .  A
C1308      C1393   1.478       .  S
Cr1309     O1312   1.781       .  S
Cr1310     O1312   1.782       .  S
Cr1311     O1312   1.778       .  S
O1313     Cr1331   1.954       .  S
O1313      C1321   1.256       .  A
O1314     Cr1331   2.065       .  S
O1314      C1315   1.294       .  A
C1315      O1316   1.277       .  A
C1315      C1374   1.495       .  S
O1316     Cr1332   1.973       .  S
O1317     Cr1332   1.997   1_545  S
O1317      C1318   1.249   1_545  A
C1318      O1319   1.248       .  A
C1318      C1381   1.479       .  S
O1319     Cr1333   1.981       .  S
O1320     Cr1333   2.007       .  S
O1320      C1321   1.267       .  A
C1321      C1358   1.479       .  S
O1322     Cr1331   2.028       .  S
O1322      C1330   1.269       .  A
O1323     Cr1331   1.976       .  S
O1323      C1324   1.244       .  A
C1324      C1386   1.462   1_565  S
O1326      C1327   1.273       .  A
C1327      C1361   1.468       .  S
O1328     Cr1333   2.032       .  S
O1329     Cr1333   1.957       .  S
O1329      C1330   1.254       .  A
Cr1331     O1334   1.761       .  S
Cr1332     O1334   1.785       .  S
Cr1333     O1334   1.769       .  S
O1335     Cr1353   1.961       .  S
O1335      C1343   1.254       .  A
O1336     Cr1353   2.012       .  S
O1336      C1337   1.268       .  A
C1337      O1338   1.259       .  A
C1337      C1357   1.470       .  S
O1339     Cr1354   2.036       .  S
C1340      O1341   1.252       .  A
O1341     Cr1355   1.964       .  S
O1342     Cr1355   2.028       .  S
O1342      C1343   1.266       .  A
C1343      C1370   1.475       .  S
O1344     Cr1353   2.039       .  S
O1344      C1352   1.272       .  A
O1345     Cr1353   1.985       .  S
C1346      O1347   1.275       .  A
C1346      C1410   1.494       .  S
O1347     Cr1354   2.042       .  S
O1348     Cr1354   1.965       .  S
O1348      C1349   1.259       .  A
C1349      O1350   1.272       .  A
C1349      C1366   1.477       .  S
O1351     Cr1355   1.944       .  S
O1351      C1352   1.255       .  A
C1352      C1362   1.477       .  S
Cr1353     O1356   1.774       .  S
Cr1355     O1356   1.766       .  S
C1357      C1358   1.352       .  D
C1357      H1359   1.087       .  S
C1358      H1360   1.086       .  S
C1361      C1362   1.351       .  D
C1361      H1363   1.087       .  S
C1362      H1364   1.086       .  S
C1365      H1367   1.086       .  S
C1366      H1368   1.088       .  S
C1369      C1370   1.343       .  D
C1369      H1371   1.087       .  S
C1370      H1372   1.086       .  S
C1373      C1374   1.353       .  D
C1373      H1375   1.086       .  S
C1374      H1376   1.086       .  S
C1377      C1378   1.358       .  D
C1377      H1379   1.087       .  S
C1381      C1382   1.343       .  D
C1381      H1383   1.088   1_565  S
C1385      C1590   1.339   1_564  D
C1385      H1387   1.087       .  S
C1386      C1589   1.340   1_545  D
C1389      C1594   1.338       .  D
C1389      H1391   1.087       .  S
C1390      C1593   1.340   1_554  D
C1390      H1392   1.086   1_554  S
C1393      C1394   1.342       .  D
C1393      H1395   1.087       .  S
C1394      H1396   1.087       .  S
C1397      C1398   1.350       .  D
C1397      H1399   1.086       .  S
C1398      H1400   1.087       .  S
C1401      H1403   1.086       .  S
C1402      H1404   1.088       .  S
C1405      C1406   1.338   1_655  D
C1405      H1407   1.087       .  S
C1409      C1614   1.355   1_454  D
C1410      C1613   1.353       .  D
C1410      H1412   1.086       .  S
C1413      C1414   1.350       .  D
C1413      H1415   1.087       .  S
C1414      H1416   1.087       .  S
C1417      C1418   1.351       .  D
C1418      H1420   1.087       .  S
C1421      C1422   1.338       .  D
C1421      H1423   1.088       .  S
C1422      H1424   1.086       .  S
C1425      C1426   1.344       .  D
C1425      H1427   1.086       .  S
C1426      H1428   1.087       .  S
O1429     Cr1447   1.951       .  S
O1429      C1437   1.255       .  A
O1430     Cr1447   2.011       .  S
O1430      C1431   1.269       .  A
C1431      O1432   1.262       .  A
C1431      C1617   1.466       .  S
O1432     Cr1448   1.979       .  S
O1433     Cr1448   2.018   1_455  S
O1433      C1434   1.262   1_455  A
C1434      O1435   1.253       .  A
C1434      C1609   1.477       .  S
O1435     Cr1449   1.975       .  S
O1436     Cr1449   2.026       .  S
O1436      C1437   1.268       .  A
C1437      C1626   1.474       .  S
O1438     Cr1447   2.026       .  S
O1438      C1446   1.269       .  A
O1439     Cr1447   1.988       .  S
O1439      C1440   1.261       .  A
C1440      C1613   1.490       .  S
O1442      C1443   1.265       .  A
C1443      C1630   1.471       .  S
O1444     Cr1449   2.044       .  S
O1445     Cr1449   1.960       .  S
O1445      C1446   1.258       .  A
Cr1447     O1450   1.773       .  S
Cr1448     O1450   1.770       .  S
Cr1449     O1450   1.773       .  S
O1451     Cr1469   1.958       .  S
O1451      C1459   1.259       .  A
O1452     Cr1469   2.052       .  S
O1452      C1453   1.290       .  A
C1453      O1454   1.280       .  A
C1453      C1602   1.489       .  S
O1454     Cr1470   1.983       .  S
O1455     Cr1470   2.002       .  S
O1455      C1456   1.249       .  A
C1456      O1457   1.248       .  A
C1456      C1598   1.482       .  S
O1457     Cr1471   1.979       .  S
O1458     Cr1471   2.003       .  S
O1458      C1459   1.266       .  A
C1459      C1618   1.479       .  S
O1460     Cr1469   2.011       .  S
O1460      C1468   1.263       .  A
O1461     Cr1469   1.978       .  S
O1461      C1462   1.243       .  A
C1462      O1463   1.245       .  A
C1462      C1594   1.460       .  S
O1463     Cr1470   1.997       .  S
O1464     Cr1470   1.980       .  S
O1464      C1465   1.276       .  A
C1465      O1466   1.286       .  A
C1465      C1622   1.471       .  S
O1466     Cr1471   2.028       .  S
O1467     Cr1471   1.957       .  S
O1467      C1468   1.255       .  A
C1468      C1605   1.484   1_655  S
Cr1469     O1472   1.758       .  S
Cr1470     O1472   1.785       .  S
Cr1471     O1472   1.767       .  S
O1473     Cr1491   2.026       .  S
O1473      C1481   1.269       .  A
O1474     Cr1491   1.990       .  S
O1474      C1475   1.260       .  A
C1475      O1476   1.269       .  A
C1475      C1601   1.492       .  S
O1476     Cr1492   2.036       .  S
O1477     Cr1492   1.975       .  S
O1477      C1478   1.260       .  A
O1479     Cr1493   2.004       .  S
O1480      C1481   1.259       .  A
C1481      C1625   1.467       .  S
O1482     Cr1491   1.991       .  S
O1483     Cr1491   2.040       .  S
O1483      C1484   1.273       .  A
C1484      O1485   1.258       .  A
C1484      C1629   1.481       .  S
O1485     Cr1492   1.958       .  S
O1486      C1487   1.268       .  A
C1487      O1488   1.262       .  A
C1487      C1606   1.482       .  S
O1488     Cr1493   1.981       .  S
O1489     Cr1493   1.991       .  S
O1489      C1490   1.258       .  A
C1490      C1586   1.470       .  S
Cr1491     O1494   1.776       .  S
Cr1492     O1494   1.773       .  S
O1495     Cr1513   1.998       .  S
O1495      C1503   1.263       .  A
O1496     Cr1513   1.989       .  S
O1496      C1497   1.257       .  A
C1497      O1498   1.266       .  A
C1497      C1577   1.488       .  S
O1498     Cr1514   2.031       .  S
O1499     Cr1514   1.972       .  S
O1499      C1500   1.261       .  A
C1500      O1501   1.266       .  A
C1500      C1593   1.473       .  S
O1501     Cr1515   2.008       .  S
O1502     Cr1515   1.975       .  S
O1502      C1503   1.262       .  A
C1503      C1573   1.465       .  S
O1504     Cr1513   1.989       .  S
O1504      C1512   1.264       .  A
O1505     Cr1513   2.036       .  S
O1505      C1506   1.271       .  A
C1506      O1507   1.257       .  A
C1506      C1569   1.479   1_565  S
O1507     Cr1514   1.958       .  S
O1508     Cr1514   2.023       .  S
O1508      C1509   1.265       .  A
C1509      O1510   1.261       .  A
C1509      C1581   1.477       .  S
O1510     Cr1515   1.978       .  S
O1511     Cr1515   2.000       .  S
O1511      C1512   1.262       .  A
C1512      C1597   1.479       .  S
Cr1513     O1516   1.781       .  S
Cr1514     O1516   1.784       .  S
Cr1515     O1516   1.778       .  S
O1517     Cr1535   1.957       .  S
O1517      C1525   1.257       .  A
O1518     Cr1535   2.061       .  S
O1518      C1519   1.293       .  A
C1519      O1520   1.278       .  A
C1519      C1578   1.489       .  S
O1520     Cr1536   1.972       .  S
O1521     Cr1536   1.989   1_545  S
O1521      C1522   1.246   1_545  A
C1522      O1523   1.249       .  A
C1522      C1585   1.474   1_565  S
O1523     Cr1537   1.978       .  S
O1524     Cr1537   2.016       .  S
O1524      C1525   1.270       .  A
C1525      C1562   1.484       .  S
O1526     Cr1535   2.020       .  S
O1526      C1534   1.267       .  A
O1527     Cr1535   1.978       .  S
O1527      C1528   1.242       .  A
C1528      C1590   1.460   1_565  S
O1530      C1531   1.272       .  A
C1531      C1565   1.469       .  S
O1532     Cr1537   2.036       .  S
O1533     Cr1537   1.961       .  S
O1533      C1534   1.255       .  A
Cr1535     O1538   1.752       .  S
Cr1536     O1538   1.785       .  S
Cr1537     O1538   1.763       .  S
O1539     Cr1557   1.957       .  S
O1539      C1547   1.253       .  A
O1540     Cr1557   2.019       .  S
O1540      C1541   1.271       .  A
C1541      O1542   1.258       .  A
C1541      C1561   1.475       .  S
O1543     Cr1558   2.022       .  S
C1544      O1545   1.253       .  A
O1545     Cr1559   1.964       .  S
O1546     Cr1559   2.031       .  S
O1546      C1547   1.266       .  A
C1547      C1574   1.470       .  S
O1548     Cr1557   2.043       .  S
O1548      C1556   1.274       .  A
O1549     Cr1557   1.983       .  S
C1550      O1551   1.270   1_455  A
C1550      C1614   1.495   1_455  S
O1551     Cr1558   2.033       .  S
O1552     Cr1558   1.969       .  S
O1552      C1553   1.265       .  A
C1553      O1554   1.274       .  A
C1553      C1570   1.474       .  S
O1555     Cr1559   1.943       .  S
O1555      C1556   1.255       .  A
C1556      C1566   1.477       .  S
Cr1557     O1560   1.768       .  S
Cr1559     O1560   1.762       .  S
C1561      C1562   1.356       .  D
C1561      H1563   1.086       .  S
C1562      H1564   1.086       .  S
C1565      C1566   1.352       .  D
C1565      H1567   1.086       .  S
C1566      H1568   1.086       .  S
C1569      H1571   1.086       .  S
C1570      H1572   1.088       .  S
C1573      C1574   1.341       .  D
C1573      H1575   1.087       .  S
C1574      H1576   1.086       .  S
C1577      C1578   1.350       .  D
C1577      H1579   1.086       .  S
C1578      H1580   1.086       .  S
C1581      C1582   1.354       .  D
C1581      H1583   1.087       .  S
C1585      C1586   1.339   1_545  D
C1585      H1587   1.088       .  S
C1589      H1591   1.088       .  S
C1593      H1595   1.087       .  S
C1594      H1596   1.087       .  S
C1597      C1598   1.344       .  D
C1597      H1599   1.087       .  S
C1598      H1600   1.087       .  S
C1601      C1602   1.349       .  D
C1601      H1603   1.087       .  S
C1602      H1604   1.087       .  S
C1605      H1607   1.086       .  S
C1606      H1608   1.087       .  S
C1609      C1610   1.346       .  D
C1609      H1611   1.087   1_655  S
C1614      H1616   1.087       .  S
C1617      C1618   1.349       .  D
C1617      H1619   1.087       .  S
C1618      H1620   1.087       .  S
C1621      C1622   1.351       .  D
C1622      H1624   1.087       .  S
C1625      C1626   1.346       .  D
C1625      H1627   1.088       .  S
C1626      H1628   1.086       .  S
C1629      C1630   1.344       .  D
C1629      H1631   1.086       .  S
C1630      H1632   1.087       .  S
