geometry optimzed in LAMMPS
_audit_creation_date              2020-11-30 
_audit_creation_method            'lammps2cif' 
_symmetry_space_group_name_H-M    'P1' 
_symmetry_Int_Tables_number       1 
_symmetry_cell_setting            triclinic 
loop_ 
_symmetry_equiv_pos_as_xyz 
  x,y,z 
_cell_length_a                    38.42204813 
_cell_length_b                    38.45451525736624 
_cell_length_c                    32.50015202547473 
_cell_angle_alpha                 91.52423562308817 
_cell_angle_beta                  91.50248178351984 
_cell_angle_gamma                 81.17554209924201 
loop_ 
_atom_site_label 
_atom_site_type_symbol 
_atom_site_fract_x 
_atom_site_fract_y 
_atom_site_fract_z 
_atom_site_charge 
O1          O  0.46632042  0.98488047  0.41882791    -0.80300
O2          O  0.51705140  0.03184935  0.08870091    -0.80300
O3          O  0.42830540  0.46374723  0.02954920    -0.80300
O4          O  0.98985807  0.06423054  0.45662634    -0.80300
O5          O  0.45812055  0.00329647  0.06649634    -0.80400
O6          O  0.51328701  0.02892845  0.40638092    -0.80300
O7          O  0.98981932  0.06247152  0.03728445    -0.80300
O8          O  0.43875136  0.50767771  0.47264520    -0.80300
C9          C  0.43872821  0.00159913  0.43548053     1.09400
C10         C  0.50235324  0.06163790  0.07657318     1.09300
C11         C  0.43106253  0.98708217  0.06214496     1.09400
C12         C  0.49665528  0.05867514  0.41792072     1.09300
O13         O  0.07048607  0.48088106  0.44628304    -0.80300
O14         O  0.01435622  0.46311779  0.10297350    -0.80400
O15         O  0.47013012  0.43614806  0.46720050    -0.80300
O16         O  0.06594891  0.03290080  0.03861228    -0.80300
O17         O  0.06298995  0.47828249  0.04811892    -0.80400
O18         O  0.02565393  0.43264172  0.45547945    -0.80300
O19         O  0.06494470  0.04000726  0.45799867    -0.80300
O20         O  0.49603266  0.43732673  0.04470630    -0.80300
Co21       Co  0.51893911  0.48353039  0.43450639     1.51500
Co22       Co  0.01225857  0.98660445  0.05272947     1.51700
Co23       Co  0.46910290  0.47675480  0.00693948     1.51600
Co24       Co  0.02563561  0.04853370  0.49877765     1.51500
O25         O  0.50942744  0.99987360  0.49301330    -1.42200
C26         C  0.08198288  0.50967341  0.44229916     1.09300
C27         C  0.00699436  0.43560124  0.08442266     1.09400
C28         C  0.99864983  0.41775983  0.45318545     1.09300
C29         C  0.07910112  0.50466026  0.05188482     1.09300
N30         N  0.00335073  0.29814334  0.25653588    -0.36800
N31         N  0.99649044  0.24341401  0.31470198    -0.57300
N32         N  0.98973228  0.19670929  0.24618326    -0.36800
N33         N  0.99437936  0.25090613  0.18715545    -0.57300
C34         C  0.99609387  0.31723513  0.29181937     0.26800
C35         C  0.99744180  0.32066802  0.22483875     0.26800
C36         C  0.98115045  0.17752907  0.27752476     0.26800
C37         C  0.97823082  0.18217443  0.21118699     0.26800
C38         C  0.00554763  0.26824410  0.34113979     0.35400
C39         C  0.00161831  0.21284625  0.33504666     0.35400
C40         C  0.00551281  0.27718023  0.16674150     0.35400
C41         C  0.99777250  0.22240034  0.16142902     0.35400
C42         C  0.98545758  0.35227437  0.28240075    -0.22100
C43         C  0.98606038  0.35440755  0.24019519    -0.22100
C44         C  0.96336727  0.15096636  0.26244848    -0.22100
C45         C  0.96143612  0.15394828  0.22045864    -0.22100
C46         C  0.01619662  0.25354157  0.37877151    -0.23100
C47         C  0.01399503  0.21819804  0.37477189    -0.23100
C48         C  0.01536571  0.26548098  0.12735921    -0.23100
C49         C  0.01047220  0.23067977  0.12402486    -0.23100
C50         C  0.00145819  0.30432098  0.33237544    -0.18500
C51         C  0.00475679  0.31195235  0.18283786    -0.18500
C52         C  0.98823927  0.18957534  0.17137770    -0.18500
C53         C  0.99255270  0.18104916  0.31869747    -0.18500
H54         H  0.97848683  0.37415781  0.30376753     0.14400
H55         H  0.97963011  0.37826143  0.22283620     0.14400
H56         H  0.95397833  0.13074967  0.27978075     0.14400
H57         H  0.95057895  0.13622488  0.19898918     0.14400
H58         H  0.02437147  0.26693399  0.40624305     0.12700
H59         H  0.02000708  0.19889328  0.39857082     0.12700
H60         H  0.02502164  0.28041702  0.10353849     0.12700
H61         H  0.01544421  0.21354503  0.09717951     0.13000
H62         H  0.01575859  0.27216235  0.25449763     0.26000
H63         H  0.00767231  0.21441062  0.24797203     0.26000
N64         N  0.30583560  0.02173689  0.25163040    -0.36800
N65         N  0.25310477  0.02522154  0.31485306    -0.57300
N66         N  0.20174152  0.01252635  0.25017206    -0.36800
N67         N  0.25468926  0.01243446  0.18752353    -0.57300
C68         C  0.32334310  0.03273499  0.28491088     0.26800
C69         C  0.32460635  0.02642196  0.21807913     0.26800
C70         C  0.18048929  0.02023491  0.28282341     0.26800
C71         C  0.18096552  0.01478227  0.21568628     0.26800
C72         C  0.28245269  0.02151942  0.33922118     0.35400
C73         C  0.22674928  0.01808275  0.33842127     0.35400
C74         C  0.28392066  0.00684553  0.16453116     0.35400
C75         C  0.22815185  0.00343085  0.16344107     0.35400
C76         C  0.35330517  0.04514268  0.27241516    -0.22100
C77         C  0.35427023  0.04091876  0.23029508    -0.22100
C78         C  0.14570926  0.02699067  0.26900247    -0.22100
C79         C  0.14601264  0.02366008  0.22667217    -0.22100
C80         C  0.27452454  0.01273511  0.37862685    -0.23100
C81         C  0.23912091  0.01098554  0.37823838    -0.23100
C82         C  0.27570044  0.99491693  0.12535726    -0.23100
C83         C  0.24039560  0.99273873  0.12469119    -0.23100
C84         C  0.31615938  0.02636300  0.32626464    -0.18500
C85         C  0.31744201  0.01439394  0.17761717    -0.18500
C86         C  0.19249370  0.00734951  0.17477303    -0.18500
C87         C  0.19146059  0.01867613  0.32481913    -0.18500
H88         H  0.37331263  0.05460381  0.29189483     0.14400
H89         H  0.37519126  0.04679479  0.21128179     0.14400
H90         H  0.12247777  0.03331522  0.28752171     0.14400
H91         H  0.12303562  0.02699826  0.20633477     0.14400
H92         H  0.29228259  0.00785874  0.40492474     0.12700
H93         H  0.22432701  0.00455287  0.40412912     0.12700
H94         H  0.29308418  0.98905072  0.09960347     0.12700
H95         H  0.22534867  0.98470935  0.09845617     0.12700
H96         H  0.28587280  0.00641634  0.25257554     0.26000
H97         H  0.22836101  0.00245832  0.25175984     0.26000
C98         C  0.15005125  0.47527251  0.13336714    -0.26500
C99         C  0.16558662  0.00542927  0.14125091    -0.14600
C100        C  0.15353091  0.03483103  0.11690024     0.36100
C101        C  0.12773793  0.03257907  0.08614311    -0.25900
C102        C  0.11286633  0.00156775  0.07924254    -0.15200
C103        C  0.12394090  0.47315498  0.10273795     0.37200
N104        N  0.10962664  0.44107041  0.09730173    -0.89400
H105        H  0.15896452  0.45265386  0.15221481     0.18300
H106        H  0.11814084  0.05594828  0.06884674     0.18300
N107        N  0.16643575  0.06760266  0.12356855    -0.88500
H108        H  0.09979103  0.43525362  0.12553359     0.35600
H109        H  0.13022007  0.42098201  0.08991556     0.40700
H110        H  0.19365042  0.06338665  0.11940817     0.40400
H111        H  0.16162641  0.07602924  0.15402548     0.35200
C112        C  0.14927767  0.04762043  0.37687510    -0.26500
C113        C  0.16462940  0.01677007  0.35648323    -0.14600
C114        C  0.15262727  0.48065599  0.36361873     0.36100
C115        C  0.12733346  0.47998955  0.39373177    -0.25900
C116        C  0.11276183  0.51081930  0.41539282    -0.15200
C117        C  0.12395850  0.04676063  0.40722594     0.37200
N118        N  0.10814456  0.07906346  0.42690480    -0.89400
H119        H  0.15695593  0.07248465  0.36878316     0.18300
H120        H  0.11825646  0.45522828  0.39917716     0.18300
N121        N  0.16570695  0.44860500  0.34190336    -0.88500
H122        H  0.11756292  0.10063242  0.41469930     0.35600
H123        H  0.11620130  0.07809132  0.45788801     0.40700
H124        H  0.19302998  0.44343168  0.34642618     0.40400
H125        H  0.16030624  0.45224763  0.31048340     0.35200
C126        C  0.36024890  0.03594810  0.13090698    -0.26500
C127        C  0.34680425  0.00770546  0.14793529    -0.14600
C128        C  0.36076544  0.97289296  0.13608766     0.36100
C129        C  0.38733013  0.96701512  0.10677142    -0.25900
C130        C  0.40128994  0.99514516  0.09036625    -0.15200
C131        C  0.38789564  0.02997938  0.10275103     0.37200
N132        N  0.40220122  0.05905113  0.08648402    -0.89400
H133        H  0.34925613  0.06263724  0.13986052     0.18300
H134        H  0.39959683  0.43819768  0.09567039     0.18300
N135        N  0.34765337  0.94370046  0.15379595    -0.88500
H136        H  0.38963080  0.08290318  0.09894942     0.35600
H137        H  0.39667314  0.05954014  0.05482171     0.40700
H138        H  0.35757099  0.44073715  0.18447651     0.40400
H139        H  0.36463796  0.41606945  0.14132193     0.35200
C140        C  0.34864212  0.04170141  0.39102424    -0.26500
C141        C  0.34673292  0.02013748  0.35571015    -0.14600
C142        C  0.37661704  0.48407239  0.34738440     0.36100
C143        C  0.40601733  0.48182897  0.37397447    -0.25900
C144        C  0.40613011  0.00891338  0.40961846    -0.15200
C145        C  0.37759049  0.03583271  0.41859158     0.37200
N146        N  0.37722487  0.05767726  0.45499724    -0.89400
H147        H  0.32734739  0.06295247  0.39734954     0.18300
H148        H  0.42839040  0.46171463  0.36779458     0.18300
N149        N  0.37638034  0.46004866  0.31270176    -0.88500
H150        H  0.39986209  0.06966442  0.45594020     0.35600
H151        H  0.37754355  0.04177825  0.48062363     0.40700
H152        H  0.35650834  0.44485211  0.31718401     0.40400
H153        H  0.40006428  0.44258995  0.31144542     0.35200
C154        C  0.47346470  0.12250489  0.09258063    -0.26500
C155        C  0.99676356  0.09313937  0.10003763    -0.14600
C156        C  0.02174002  0.09849713  0.13139667     0.36100
C157        C  0.01983840  0.13135964  0.15117866    -0.25900
C158        C  0.99288169  0.15918038  0.14175362    -0.15200
C159        C  0.47187484  0.15535446  0.11258512     0.37200
N160        N  0.44247457  0.18207670  0.10406451    -0.89400
H161        H  0.45293173  0.11860361  0.07018114     0.18300
H162        H  0.03875810  0.13481655  0.17573177     0.18300
N163        N  0.04959125  0.07140345  0.14370717    -0.88500
H164        H  0.45211074  0.20424292  0.09383638     0.35600
H165        H  0.42916290  0.18893111  0.13144377     0.40700
H166        H  0.06469867  0.06312548  0.11807138     0.40400
H167        H  0.03858851  0.05027786  0.15457837     0.35200
C168        C  0.46427087  0.14896592  0.37440687    -0.26500
C169        C  0.99447721  0.14992359  0.34509590    -0.14600
C170        C  0.01901279  0.11944849  0.33702975     0.36100
C171        C  0.01833900  0.08924705  0.36011235    -0.25900
C172        C  0.49104774  0.08888001  0.38997326    -0.15200
C173        C  0.46501122  0.11848102  0.39744220     0.37200
N174        N  0.43933678  0.11777291  0.42844053    -0.89400
H175        H  0.44400607  0.17139022  0.37988515     0.18300
H176        H  0.03777375  0.06617431  0.35441294     0.18300
N177        N  0.04464623  0.11950514  0.30558217    -0.88500
H178        H  0.41433271  0.12270266  0.41438191     0.35600
H179        H  0.44156193  0.13823941  0.44971727     0.40700
H180        H  0.06076069  0.09503590  0.30342756     0.40400
H181        H  0.06101617  0.13780651  0.31468042     0.35200
C182        C  0.47905399  0.35130885  0.12417386    -0.26500
C183        C  0.00882279  0.34117488  0.15445660    -0.14600
C184        C  0.03471699  0.36337431  0.16166616     0.36100
C185        C  0.03370714  0.39391258  0.13870749    -0.25900
C186        C  0.00906605  0.40179910  0.10636821    -0.15200
C187        C  0.47967813  0.38018976  0.09852609     0.37200
N188        N  0.45404303  0.38701877  0.06556681    -0.89400
H189        H  0.45924963  0.33433603  0.11885947     0.18300
H190        H  0.05243070  0.41152200  0.14621416     0.18300
N191        N  0.06296687  0.35505171  0.19116839    -0.88500
H192        H  0.43609520  0.36915530  0.06574788     0.35600
H193        H  0.46739489  0.38231835  0.03788595     0.40700
H194        H  0.07608642  0.32979233  0.18418802     0.40400
H195        H  0.05289871  0.35513259  0.22064734     0.35200
C196        C  0.03127098  0.37098702  0.40831150    -0.26500
C197        C  0.99957860  0.38459759  0.42793581    -0.14600
C198        C  0.46551973  0.37287466  0.41704428     0.36100
C199        C  0.46594385  0.34511075  0.38834828    -0.25900
C200        C  0.00189596  0.33006214  0.36729112    -0.15200
C201        C  0.03262017  0.34421740  0.37788442     0.37200
N202        N  0.06498141  0.33154489  0.35738408    -0.89400
H203        H  0.05492356  0.38233788  0.41526095     0.18300
H204        H  0.44165400  0.33510191  0.38060096     0.18300
N205        N  0.43239555  0.38669743  0.43486290    -0.88500
H206        H  0.08540939  0.34414964  0.36936159     0.35600
H207        H  0.06156346  0.33847534  0.32649278     0.40700
H208        H  0.42498881  0.41274875  0.42596438     0.40400
H209        H  0.43507466  0.38561141  0.46690942     0.35200
O210        O  0.46979704  0.98626574  0.91923533    -0.80300
O211        O  0.51586329  0.03093557  0.58576215    -0.80300
O212        O  0.43112692  0.46041773  0.53238452    -0.80300
O213        O  0.98999713  0.06288036  0.95571152    -0.80300
O214        O  0.45851442  0.00044049  0.56681629    -0.80400
O215        O  0.51688251  0.03088252  0.90923315    -0.80300
O216        O  0.98858423  0.06350975  0.53868065    -0.80300
O217        O  0.43972633  0.50914980  0.96937555    -0.80300
C218        C  0.44193024  0.00283524  0.93542820     1.09400
C219        C  0.50024708  0.06054317  0.57397037     1.09300
C220        C  0.43136962  0.98432841  0.56297681     1.09400
C221        C  0.50104588  0.06089334  0.92111573     1.09300
O222        O  0.06949499  0.47998977  0.94559633    -0.80300
O223        O  0.01188298  0.46197885  0.60392071    -0.80400
O224        O  0.46933731  0.43663112  0.96594950    -0.80300
O225        O  0.06519739  0.03559360  0.54128476    -0.80300
O226        O  0.06185745  0.47651725  0.55041524    -0.80400
O227        O  0.02345424  0.43288934  0.95582961    -0.80300
O228        O  0.06519812  0.03761072  0.95535265    -0.80300
O229        O  0.49995067  0.43576181  0.54337838    -0.80300
Co230      Co  0.52004119  0.48276289  0.93460879     1.51500
Co231      Co  0.01294033  0.98753001  0.55430404     1.51700
Co232      Co  0.47037965  0.47549748  0.50842692     1.51600
Co233      Co  0.02626026  0.04668850  0.99679161     1.51500
O234        O  0.51147784  0.00105746  0.99506920    -1.42200
C235        C  0.08181040  0.50828297  0.94124348     1.09300
C236        C  0.00538089  0.43417638  0.58544734     1.09400
C237        C  0.99583172  0.41888765  0.95420170     1.09300
C238        C  0.07833929  0.50270383  0.55356915     1.09300
N239        N  0.99773604  0.29882628  0.75948079    -0.36800
N240        N  0.98597199  0.24480609  0.81692870    -0.57300
N241        N  0.98049980  0.19869096  0.74752158    -0.36800
N242        N  0.98981434  0.25193094  0.68950075    -0.57300
C243        C  0.99015933  0.31813405  0.79449303     0.26800
C244        C  0.99403098  0.32142050  0.72779605     0.26800
C245        C  0.97009884  0.17989192  0.77813176     0.26800
C246        C  0.97006969  0.18441543  0.71182681     0.26800
C247        C  0.99526016  0.26919500  0.84388351     0.35400
C248        C  0.98978390  0.21409607  0.83704172     0.35400
C249        C  0.00286763  0.27759423  0.67010823     0.35400
C250        C  0.99377078  0.22332640  0.66394765     0.35400
C251        C  0.98162932  0.35340798  0.78494685    -0.22100
C252        C  0.98382353  0.35545658  0.74289336    -0.22100
C253        C  0.95192945  0.15403651  0.76189029    -0.22100
C254        C  0.95187243  0.15691481  0.71987660    -0.22100
C255        C  0.00430098  0.25419509  0.88174740    -0.23100
C256        C  0.00124170  0.21905328  0.87725965    -0.23100
C257        C  0.01451907  0.26547733  0.63152145    -0.23100
C258        C  0.00887324  0.23093243  0.62769538    -0.23100
C259        C  0.99362237  0.30511594  0.83505808    -0.18500
C260        C  0.00209174  0.31232832  0.68610420    -0.18500
C261        C  0.98254344  0.19107979  0.67292434    -0.18500
C262        C  0.98116638  0.18238358  0.81955055    -0.18500
H263        H  0.97500040  0.37547954  0.80614686     0.14400
H264        H  0.97915475  0.37941024  0.72551285     0.14400
H265        H  0.94142156  0.13409338  0.77852374     0.14400
H266        H  0.94151878  0.13942891  0.69768163     0.14400
H267        H  0.01237639  0.26718030  0.90956146     0.12700
H268        H  0.00639660  0.19961481  0.90100016     0.12700
H269        H  0.02586406  0.28000233  0.60859025     0.12700
H270        H  0.01485100  0.21355693  0.60123733     0.13000
H271        H  0.00892945  0.27244676  0.75785665     0.26000
H272        H  0.99926238  0.21547999  0.75050602     0.26000
N273        N  0.30782531  0.01867596  0.75327548    -0.36800
N274        N  0.25541147  0.02302797  0.81658492    -0.57300
N275        N  0.20338278  0.01148550  0.75189106    -0.36800
N276        N  0.25603519  0.01035228  0.68917520    -0.57300
C277        C  0.32583794  0.02963968  0.78614476     0.26800
C278        C  0.32671238  0.02217209  0.71953050     0.26800
C279        C  0.18255783  0.01882079  0.78492601     0.26800
C280        C  0.18234158  0.01510827  0.71760630     0.26800
C281        C  0.28484714  0.01962202  0.84083798     0.35400
C282        C  0.22929613  0.01537243  0.84018304     0.35400
C283        C  0.28543871  0.00239384  0.66678785     0.35400
C284        C  0.22913297  0.00186064  0.66533526     0.35400
C285        C  0.35629302  0.04078842  0.77315355    -0.22100
C286        C  0.35700096  0.03584498  0.73115273    -0.22100
C287        C  0.14772348  0.02678011  0.77156111    -0.22100
C288        C  0.14760050  0.02458538  0.72912353    -0.22100
C289        C  0.27721837  0.01070539  0.88025573    -0.23100
C290        C  0.24195752  0.00814473  0.87989280    -0.23100
C291        C  0.27707180  0.98914894  0.62828191    -0.23100
C292        C  0.24135074  0.98894595  0.62732416    -0.23100
C293        C  0.31850363  0.02437294  0.82767117    -0.18500
C294        C  0.31913308  0.00962137  0.67950099    -0.18500
C295        C  0.19340295  0.00782826  0.67646236    -0.18500
C296        C  0.19392186  0.01588542  0.82678286    -0.18500
H297        H  0.37676604  0.04985006  0.79224156     0.14400
H298        H  0.37819561  0.04058622  0.71184412     0.14400
H299        H  0.12472686  0.03310109  0.79046211     0.14400
H300        H  0.12447048  0.02884860  0.70907673     0.14400
H301        H  0.29519104  0.00613555  0.90642375     0.12700
H302        H  0.22741607  0.00128214  0.90578239     0.12700
H303        H  0.29465397  0.98120437  0.60312246     0.12700
H304        H  0.22608322  0.98053330  0.60149429     0.12700
H305        H  0.28730526  0.00409160  0.75457458     0.26000
H306        H  0.22980362  0.00060958  0.75313253     0.26000
C307        C  0.15064548  0.47219684  0.63264012    -0.26500
C308        C  0.16618895  0.00678099  0.64299939    -0.14600
C309        C  0.15453286  0.03636745  0.61869384     0.36100
C310        C  0.12809763  0.03480929  0.58839200    -0.25900
C311        C  0.11267924  0.00412165  0.58148281    -0.15200
C312        C  0.12462341  0.47026336  0.60191519     0.37200
N313        N  0.11159133  0.43767465  0.59459230    -0.89400
H314        H  0.16011994  0.44920762  0.65066526     0.18300
H315        H  0.11871898  0.05828684  0.57119234     0.18300
N316        N  0.16863136  0.06854924  0.62481896    -0.88500
H317        H  0.10198822  0.43024967  0.62227613     0.35600
H318        H  0.13280936  0.41858356  0.58631834     0.40700
H319        H  0.19577632  0.06336052  0.62022293     0.40400
H320        H  0.16447449  0.07719733  0.65531639     0.35200
C321        C  0.15644440  0.04210387  0.88474965    -0.26500
C322        C  0.16726768  0.01318322  0.85847526    -0.14600
C323        C  0.15350027  0.47617219  0.86481384     0.36100
C324        C  0.12740614  0.47666228  0.89422491    -0.25900
C325        C  0.11374318  0.50790709  0.91574915    -0.15200
C326        C  0.13073724  0.04071979  0.91451051     0.37200
N327        N  0.12028866  0.07063998  0.94129976    -0.89400
H328        H  0.16793461  0.06591496  0.88170517     0.18300
H329        H  0.11690375  0.45254646  0.89909199     0.18300
N330        N  0.16580833  0.44372142  0.84347380    -0.88500
H331        H  0.13406445  0.09119890  0.93477826     0.35600
H332        H  0.12762158  0.06307238  0.97135542     0.40700
H333        H  0.19304665  0.43777677  0.84841947     0.40400
H334        H  0.16086093  0.44722803  0.81196541     0.35200
C335        C  0.36034542  0.03178350  0.63185138    -0.26500
C336        C  0.34813430  0.00318619  0.64961487    -0.14600
C337        C  0.36361557  0.96854698  0.63919684     0.36100
C338        C  0.39007701  0.96313348  0.60978319    -0.25900
C339        C  0.40250954  0.99168873  0.59226654    -0.15200
C340        C  0.38807851  0.02636846  0.60392589     0.37200
N341        N  0.40148076  0.05580867  0.58725047    -0.89400
H342        H  0.34845308  0.05832704  0.64027528     0.18300
H343        H  0.39909398  0.43590471  0.59585521     0.18300
N344        N  0.35226684  0.93912630  0.65852235    -0.88500
H345        H  0.38824397  0.07950413  0.59936975     0.35600
H346        H  0.39605601  0.05583681  0.55556725     0.40700
H347        H  0.35323332  0.43918045  0.68198419     0.40400
H348        H  0.36101352  0.41485180  0.63867553     0.35200
C349        C  0.35273338  0.04308469  0.88926831    -0.26500
C350        C  0.34905957  0.01873556  0.85710903    -0.14600
C351        C  0.37750484  0.48729586  0.84393961     0.36100
C352        C  0.40735457  0.48465537  0.86992898    -0.25900
C353        C  0.40936999  0.00946530  0.90956249    -0.15200
C354        C  0.38237940  0.03850928  0.91588520     0.37200
N355        N  0.38468719  0.06413736  0.94821335    -0.89400
H356        H  0.33255478  0.06579385  0.89350641     0.18300
H357        H  0.42936443  0.46419000  0.86350964     0.18300
N358        N  0.37627088  0.46306980  0.80959910    -0.88500
H359        H  0.40830098  0.07413165  0.94547365     0.35600
H360        H  0.38493267  0.05175269  0.97646078     0.40700
H361        H  0.35618955  0.44830194  0.81482466     0.40400
H362        H  0.39968243  0.44523759  0.80799874     0.35200
C363        C  0.46936729  0.12049274  0.59113391    -0.26500
C364        C  0.99435586  0.09446306  0.60147838    -0.14600
C365        C  0.01838325  0.10016428  0.63377683     0.36100
C366        C  0.01511444  0.13286601  0.65420325    -0.25900
C367        C  0.98827711  0.16045726  0.64370605    -0.15200
C368        C  0.46658271  0.15322031  0.61186183     0.37200
N369        N  0.43690585  0.17954722  0.60217046    -0.89400
H370        H  0.44961973  0.11654009  0.56774801     0.18300
H371        H  0.03313224  0.13650789  0.67964843     0.18300
N372        N  0.04681783  0.07369870  0.64617112    -0.88500
H373        H  0.43892276  0.18620371  0.57143366     0.35600
H374        H  0.43738075  0.20262084  0.61965995     0.40700
H375        H  0.06260054  0.06629075  0.62080277     0.40400
H376        H  0.03645329  0.05192061  0.65627863     0.35200
C377        C  0.47450731  0.15296886  0.87953449    -0.26500
C378        C  0.98446843  0.15000601  0.84430742    -0.14600
C379        C  0.00789135  0.11958361  0.83273168     0.36100
C380        C  0.00995868  0.08887433  0.85559792    -0.25900
C381        C  0.49656714  0.09137834  0.89344735    -0.15200
C382        C  0.47478441  0.12339846  0.90386491     0.37200
N383        N  0.45288512  0.12619301  0.93916048    -0.89400
H384        H  0.45722640  0.17713308  0.88729011     0.18300
H385        H  0.02893260  0.06616218  0.84701249     0.18300
N386        N  0.03022063  0.12012225  0.79820270    -0.88500
H387        H  0.42680358  0.13401688  0.92930234     0.35600
H388        H  0.46012193  0.14599186  0.95878708     0.40700
H389        H  0.02492061  0.10049165  0.77711533     0.40400
H390        H  0.05638367  0.11383509  0.80850699     0.35200
C391        C  0.48740351  0.34586298  0.61642084    -0.26500
C392        C  0.00628403  0.34117387  0.65743629    -0.14600
C393        C  0.03311666  0.36243618  0.66322844     0.36100
C394        C  0.03252104  0.39252321  0.63951795    -0.25900
C395        C  0.00693629  0.40091946  0.60821441    -0.15200
C396        C  0.48908994  0.37482556  0.59150489     0.37200
N397        N  0.46751657  0.37929964  0.55484153    -0.89400
H398        H  0.46905008  0.32796979  0.60800105     0.18300
H399        H  0.05226767  0.40936163  0.64553763     0.18300
N400        N  0.06171513  0.35362207  0.69214395    -0.88500
H401        H  0.44123534  0.38028024  0.56298337     0.35600
H402        H  0.47431726  0.35716998  0.53565460     0.40700
H403        H  0.07413586  0.32810613  0.68508537     0.40400
H404        H  0.05191111  0.35396944  0.72180133     0.35200
C405        C  0.02661763  0.36981247  0.91110388    -0.26500
C406        C  0.99510227  0.38583972  0.92933101    -0.14600
C407        C  0.46527341  0.37374284  0.91345972     0.36100
C408        C  0.46605617  0.34670338  0.88354503    -0.25900
C409        C  0.99511306  0.33076033  0.86982760    -0.15200
C410        C  0.02684376  0.34281289  0.88111965     0.37200
N411        N  0.05906797  0.32790878  0.86161571    -0.89400
H412        H  0.05109322  0.37944023  0.91878363     0.18300
H413        H  0.44192993  0.33666615  0.87507544     0.18300
N414        N  0.43208947  0.38672750  0.93160341    -0.88500
H415        H  0.08023864  0.33919559  0.87397365     0.35600
H416        H  0.05673359  0.33457488  0.83058383     0.40700
H417        H  0.42457080  0.41306241  0.92388632     0.40400
H418        H  0.43483581  0.38466991  0.96356900     0.35200
O419        O  0.46789936  0.48507127  0.41801931    -0.80300
O420        O  0.51325893  0.53308635  0.08577639    -0.80300
O421        O  0.43038660  0.96401127  0.03370312    -0.80300
O422        O  0.98964337  0.56379837  0.45611425    -0.80300
O423        O  0.45567706  0.50298704  0.06321915    -0.80400
O424        O  0.51306173  0.53108799  0.40744959    -0.80300
O425        O  0.98957398  0.56495338  0.03625230    -0.80300
O426        O  0.43854508  0.00875710  0.47379870    -0.80300
C427        C  0.43950034  0.50017916  0.43440167     1.09400
C428        C  0.49834056  0.56269375  0.07350403     1.09300
C429        C  0.42879598  0.48654078  0.05830699     1.09400
C430        C  0.49578884  0.56044210  0.41932193     1.09300
O431        O  0.07226482  0.98272943  0.44746124    -0.80300
O432        O  0.01382084  0.96187728  0.10272037    -0.80400
O433        O  0.46759612  0.93629854  0.46826221    -0.80300
O434        O  0.06507104  0.53445004  0.03772940    -0.80300
O435        O  0.06401220  0.97672883  0.04959571    -0.80400
O436        O  0.02802250  0.93274701  0.45445971    -0.80300
O437        O  0.06454022  0.53805396  0.45664414    -0.80300
O438        O  0.49838035  0.93655503  0.04597058    -0.80300
Co439      Co  0.51778409  0.98172529  0.43435887     1.51500
Co440      Co  0.01153233  0.48839996  0.05302720     1.51700
Co441      Co  0.47100038  0.97685624  0.00996918     1.51600
Co442      Co  0.02527554  0.54705465  0.49784423     1.51500
O443        O  0.50938214  0.50138907  0.49297144    -1.42200
C444        C  0.08306071  0.01195765  0.44384460     1.09300
C445        C  0.00679044  0.93425757  0.08423483     1.09400
C446        C  0.00080017  0.91802310  0.45260608     1.09300
C447        C  0.08012479  0.00318464  0.05294398     1.09300
N448        N  0.99488573  0.79913226  0.25759676    -0.36800
N449        N  0.99160037  0.74340535  0.31505404    -0.57300
N450        N  0.98398970  0.69771692  0.24591889    -0.36800
N451        N  0.98541593  0.75305490  0.18748703    -0.57300
C452        C  0.98794440  0.81748758  0.29333135     0.26800
C453        C  0.98725465  0.82201084  0.22654288     0.26800
C454        C  0.97661634  0.67773440  0.27710708     0.26800
C455        C  0.97197855  0.68357949  0.21096630     0.26800
C456        C  0.00168131  0.76795143  0.34120428     0.35400
C457        C  0.99851839  0.71237226  0.33431849     0.35400
C458        C  0.99683592  0.77961845  0.16798911     0.35400
C459        C  0.99034614  0.72464385  0.16170755     0.35400
C460        C  0.97523502  0.85236651  0.28484168    -0.22100
C461        C  0.97461786  0.85518391  0.24263229    -0.22100
C462        C  0.95891626  0.65110353  0.26200631    -0.22100
C463        C  0.95591552  0.65484181  0.22011166    -0.22100
C464        C  0.01483323  0.75258487  0.37764398    -0.23100
C465        C  0.01302080  0.71713624  0.37316075    -0.23100
C466        C  0.00833026  0.76825463  0.12908386    -0.23100
C467        C  0.00423713  0.73328507  0.12513726    -0.23100
C468        C  0.99641962  0.80423855  0.33319743    -0.18500
C469        C  0.99527444  0.81419871  0.18470330    -0.18500
C470        C  0.98176533  0.69140243  0.17125485    -0.18500
C471        C  0.98925251  0.68065053  0.31789036    -0.18500
H472        H  0.96811949  0.87377043  0.30680730     0.14400
H473        H  0.96702526  0.87915498  0.22575625     0.14400
H474        H  0.95045999  0.63026660  0.27916456     0.14400
H475        H  0.94509416  0.63717765  0.19853132     0.14400
H476        H  0.02439278  0.76559577  0.40464323     0.12700
H477        H  0.02082477  0.69732809  0.39604027     0.12700
H478        H  0.01879553  0.78342792  0.10610203     0.12700
H479        H  0.01081646  0.71619189  0.09857926     0.13000
H480        H  0.00881847  0.77377921  0.25474502     0.26000
H481        H  0.00171493  0.71564990  0.24748725     0.26000
N482        N  0.30647851  0.51311148  0.24980460    -0.36800
N483        N  0.25398314  0.51640676  0.31318300    -0.57300
N484        N  0.20128622  0.51039722  0.24863754    -0.36800
N485        N  0.25411244  0.50948389  0.18580856    -0.57300
C486        C  0.32447527  0.52260541  0.28343841     0.26800
C487        C  0.32471167  0.51943091  0.21645243     0.26800
C488        C  0.18059730  0.51892352  0.28162916     0.26800
C489        C  0.18055304  0.51584742  0.21436997     0.26800
C490        C  0.28364169  0.50952084  0.33672207     0.35400
C491        C  0.22733767  0.50912883  0.33619480     0.35400
C492        C  0.28322946  0.50218457  0.16284503     0.35400
C493        C  0.22708726  0.50126990  0.16207273     0.35400
C494        C  0.35426476  0.53562982  0.27137351    -0.22100
C495        C  0.35455364  0.53338596  0.22906160    -0.22100
C496        C  0.14619467  0.52982340  0.26818503    -0.22100
C497        C  0.14617407  0.52793721  0.22572011    -0.22100
C498        C  0.27578898  0.49809886  0.37500151    -0.23100
C499        C  0.23999459  0.49816098  0.37479295    -0.23100
C500        C  0.27458673  0.48971369  0.12408514    -0.23100
C501        C  0.23895505  0.48910654  0.12361374    -0.23100
C502        C  0.31733225  0.51498604  0.32440953    -0.18500
C503        C  0.31691057  0.50917535  0.17560035    -0.18500
C504        C  0.19146972  0.50764784  0.17343188    -0.18500
C505        C  0.19156551  0.51390817  0.32332052    -0.18500
H506        H  0.37448016  0.54440989  0.29111837     0.14400
H507        H  0.37501505  0.54025461  0.20999515     0.14400
H508        H  0.12337126  0.53767348  0.28701631     0.14400
H509        H  0.12332561  0.53411932  0.20552733     0.14400
H510        H  0.29386336  0.49064373  0.40046748     0.12700
H511        H  0.22504308  0.49077878  0.40004783     0.12700
H512        H  0.29192664  0.48248083  0.09853145     0.12700
H513        H  0.22345499  0.48125307  0.09768122     0.12700
H514        H  0.28629389  0.49795731  0.25001226     0.26000
H515        H  0.22704570  0.49736251  0.24958467     0.26000
C516        C  0.15268723  0.97375357  0.13291771    -0.26500
C517        C  0.16426623  0.50633651  0.14034112    -0.14600
C518        C  0.15343480  0.53531737  0.11493231     0.36100
C519        C  0.12749165  0.53326282  0.08431554    -0.25900
C520        C  0.11152852  0.50280689  0.07853359    -0.15200
C521        C  0.12665357  0.97146542  0.10208668     0.37200
N522        N  0.11406058  0.93863892  0.09469084    -0.89400
H523        H  0.16259751  0.95078784  0.15078174     0.18300
H524        H  0.11879845  0.55629683  0.06608638     0.18300
N525        N  0.16778189  0.56742859  0.12032765    -0.88500
H526        H  0.10408181  0.93115433  0.12216814     0.35600
H527        H  0.13551357  0.91971025  0.08672936     0.40700
H528        H  0.19499070  0.56192709  0.11633548     0.40400
H529        H  0.16320400  0.57684167  0.15048269     0.35200
C530        C  0.15092923  0.54319760  0.37707548    -0.26500
C531        C  0.16442627  0.51255867  0.35491358    -0.14600
C532        C  0.15537760  0.98423069  0.36733682     0.36100
C533        C  0.13033234  0.98313538  0.39752234    -0.25900
C534        C  0.11377436  0.01407352  0.41734867    -0.15200
C535        C  0.12513438  0.54272097  0.40693284     0.37200
N536        N  0.11126056  0.57488577  0.42792314    -0.89400
H537        H  0.16011756  0.56774307  0.37072740     0.18300
H538        H  0.12307180  0.95784717  0.40453677     0.18300
N539        N  0.17092172  0.95191913  0.34785481    -0.88500
H540        H  0.10024638  0.59293079  0.40589052     0.35600
H541        H  0.13219175  0.58489146  0.44279447     0.40700
H542        H  0.19820950  0.94903420  0.35268774     0.40400
H543        H  0.16557994  0.95360012  0.31620451     0.35200
C544        C  0.35693837  0.53278142  0.12733689    -0.26500
C545        C  0.34569281  0.50375251  0.14534290    -0.14600
C546        C  0.36141369  0.46938482  0.13414504     0.36100
C547        C  0.38749459  0.46461544  0.10429595    -0.25900
C548        C  0.39922577  0.49351905  0.08675718    -0.15200
C549        C  0.38405827  0.52798929  0.09847038     0.37200
N550        N  0.39606762  0.55781134  0.08086981    -0.89400
H551        H  0.34466648  0.55911628  0.13608940     0.18300
H552        H  0.39802371  0.94027091  0.09765079     0.18300
N553        N  0.35068680  0.43952327  0.15318652    -0.88500
H554        H  0.38230532  0.58128114  0.09292641     0.35600
H555        H  0.39004289  0.55732888  0.04933112     0.40700
H556        H  0.35402451  0.94388716  0.18526889     0.40400
H557        H  0.36041357  0.91984311  0.14154678     0.35200
C558        C  0.34759076  0.53270870  0.38938405    -0.26500
C559        C  0.34742396  0.51030882  0.35455663    -0.14600
C560        C  0.37420213  0.99216810  0.34795167     0.36100
C561        C  0.40377010  0.98742724  0.37430260    -0.25900
C562        C  0.40682091  0.50457555  0.40848492    -0.15200
C563        C  0.37671130  0.52978701  0.41674541     0.37200
N564        N  0.37507507  0.55311637  0.45194849    -0.89400
H565        H  0.32505049  0.55274476  0.39510538     0.18300
H566        H  0.42492279  0.96619161  0.36741167     0.18300
N567        N  0.37192570  0.96869610  0.31308043    -0.88500
H568        H  0.39648672  0.56689030  0.45160837     0.35600
H569        H  0.37684123  0.53812335  0.47847290     0.40700
H570        H  0.35074030  0.95521175  0.31762587     0.40400
H571        H  0.39445362  0.94966991  0.31146454     0.35200
C572        C  0.46953194  0.62379943  0.08887603    -0.26500
C573        C  0.99484319  0.59527268  0.09945242    -0.14600
C574        C  0.01919804  0.60123643  0.13130581     0.36100
C575        C  0.01587665  0.63401055  0.15156865    -0.25900
C576        C  0.98818309  0.66102416  0.14189413    -0.15200
C577        C  0.46694640  0.65625883  0.11013950     0.37200
N578        N  0.43877239  0.68368163  0.09884439    -0.89400
H579        H  0.45072212  0.62080306  0.06407572     0.18300
H580        H  0.03425121  0.63800971  0.17651699     0.18300
N581        N  0.04778916  0.57488728  0.14358574    -0.88500
H582        H  0.44295360  0.69058843  0.06867120     0.35600
H583        H  0.43902596  0.70637815  0.11708146     0.40700
H584        H  0.06332806  0.56730275  0.11805678     0.40400
H585        H  0.03752738  0.55316348  0.15404060     0.35200
C586        C  0.46077609  0.65031376  0.37669816    -0.26500
C587        C  0.99176106  0.64930221  0.34401057    -0.14600
C588        C  0.01636534  0.61902660  0.33562660     0.36100
C589        C  0.01661975  0.58882083  0.35893099    -0.25900
C590        C  0.48832397  0.59030911  0.39112107    -0.15200
C591        C  0.46298059  0.62008041  0.40037990     0.37200
N592        N  0.43954242  0.61984526  0.43389844    -0.89400
H593        H  0.44125531  0.67299811  0.38381851     0.18300
H594        H  0.03638548  0.56608670  0.35285978     0.18300
N595        N  0.04153317  0.61918944  0.30391053    -0.88500
H596        H  0.41369993  0.62485779  0.42219087     0.35600
H597        H  0.44332312  0.64042937  0.45439489     0.40700
H598        H  0.03835451  0.59894388  0.28268212     0.40400
H599        H  0.06675404  0.61355492  0.31729321     0.35200
C600        C  0.48192221  0.84902892  0.12343259    -0.26500
C601        C  0.00060144  0.84358661  0.15741805    -0.14600
C602        C  0.02705019  0.86494073  0.16589921     0.36100
C603        C  0.02888685  0.89415620  0.14159503    -0.25900
C604        C  0.00632574  0.90153535  0.10724283    -0.15200
C605        C  0.48258589  0.87816744  0.09821477     0.37200
N606        N  0.45675881  0.88556368  0.06555800    -0.89400
H607        H  0.46160884  0.83259722  0.11839666     0.18300
H608        H  0.04840314  0.91096928  0.14934424     0.18300
N609        N  0.05327248  0.85682477  0.19782202    -0.88500
H610        H  0.43886116  0.86763511  0.06535486     0.35600
H611        H  0.46999394  0.88135668  0.03775584     0.40700
H612        H  0.06571951  0.83093581  0.19309258     0.40400
H613        H  0.04135028  0.85879621  0.22640532     0.35200
C614        C  0.03047415  0.87215656  0.40406650    -0.26500
C615        C  0.00035300  0.88523524  0.42688173    -0.14600
C616        C  0.46126386  0.87564358  0.41361323     0.36100
C617        C  0.46185261  0.84844677  0.38412856    -0.25900
C618        C  0.99927067  0.82984085  0.36772956    -0.15200
C619        C  0.03003489  0.84509660  0.37416642     0.37200
N620        N  0.06053258  0.83335511  0.34986216    -0.89400
H621        H  0.05409991  0.88415346  0.40809763     0.18300
H622        H  0.43720344  0.84117583  0.37248288     0.18300
N623        N  0.42754618  0.89240087  0.42736320    -0.88500
H624        H  0.08125038  0.84681145  0.35886302     0.35600
H625        H  0.05408102  0.84003874  0.31933480     0.40700
H626        H  0.42376568  0.91879796  0.41911734     0.40400
H627        H  0.42691741  0.89065588  0.45937158     0.35200
O628        O  0.46934363  0.48502683  0.91587785    -0.80300
O629        O  0.51485712  0.53133111  0.58657395    -0.80300
O630        O  0.42963795  0.96210571  0.53390988    -0.80300
O631        O  0.98962655  0.56428659  0.95411746    -0.80300
O632        O  0.45765775  0.50057816  0.56528692    -0.80400
O633        O  0.51597458  0.53017165  0.90673169    -0.80300
O634        O  0.98862247  0.56239311  0.53801072    -0.80300
O635        O  0.44119509  0.01007345  0.97369766    -0.80300
C636        C  0.44100213  0.50129543  0.93127087     1.09400
C637        C  0.49873376  0.56096984  0.57579396     1.09300
C638        C  0.43118982  0.48354998  0.56076083     1.09400
C639        C  0.49845863  0.55957060  0.91810484     1.09300
O640        O  0.07122302  0.98038057  0.94499510    -0.80300
O641        O  0.01567867  0.96207900  0.60397707    -0.80400
O642        O  0.47038047  0.93731902  0.96842036    -0.80300
O643        O  0.06444641  0.53267172  0.53976393    -0.80300
O644        O  0.06459046  0.97901393  0.55059900    -0.80400
O645        O  0.02686173  0.93148960  0.95253814    -0.80300
O646        O  0.06453275  0.53732013  0.95414011    -0.80300
O647        O  0.49784487  0.93525535  0.54441965    -0.80300
Co648      Co  0.52098041  0.98337577  0.93643392     1.51500
Co649      Co  0.01027906  0.48680670  0.55386591     1.51700
Co650      Co  0.46938346  0.97566491  0.50929209     1.51600
Co651      Co  0.02562382  0.54805625  0.99571443     1.51500
O652        O  0.50962130  0.50107955  0.99287300    -1.42200
C653        C  0.08305103  0.00906500  0.94204705     1.09300
C654        C  0.00941509  0.93430350  0.58513544     1.09400
C655        C  0.99966698  0.91678442  0.95171322     1.09300
C656        C  0.08000520  0.00584068  0.55495842     1.09300
N657        N  0.00090142  0.79723775  0.75697924    -0.36800
N658        N  0.99113425  0.74248486  0.81409313    -0.57300
N659        N  0.98549556  0.69692019  0.74466694    -0.36800
N660        N  0.99347441  0.75083719  0.68681846    -0.57300
C661        C  0.99349255  0.81609836  0.79234224     0.26800
C662        C  0.99612826  0.82010315  0.72554735     0.26800
C663        C  0.97478824  0.67806763  0.77500747     0.26800
C664        C  0.97475730  0.68313886  0.70890153     0.26800
C665        C  0.00075962  0.76663724  0.84108422     0.35400
C666        C  0.99503662  0.71165955  0.83391673     0.35400
C667        C  0.00583391  0.77689096  0.66746220     0.35400
C668        C  0.99822278  0.72227183  0.66132610     0.35400
C669        C  0.98380636  0.85134832  0.78323844    -0.22100
C670        C  0.98531796  0.85384905  0.74113344    -0.22100
C671        C  0.95621944  0.65262506  0.75852703    -0.22100
C672        C  0.95613209  0.65587410  0.71659077    -0.22100
C673        C  0.01034194  0.75128835  0.87865723    -0.23100
C674        C  0.00700676  0.71620734  0.87397678    -0.23100
C675        C  0.01788676  0.76502127  0.62892754    -0.23100
C676        C  0.01314665  0.73021788  0.62510523    -0.23100
C677        C  0.99824568  0.80272521  0.83273281    -0.18500
C678        C  0.00432572  0.81158184  0.68373571    -0.18500
C679        C  0.98742437  0.68990162  0.67023005    -0.18500
C680        C  0.98564484  0.68034776  0.81642794    -0.18500
H681        H  0.97695640  0.87313839  0.80476074     0.14400
H682        H  0.97976905  0.87791442  0.72403376     0.14400
H683        H  0.94536229  0.63277858  0.77493482     0.14400
H684        H  0.94545332  0.63878359  0.69418815     0.14400
H685        H  0.01864105  0.76406838  0.90650103     0.12700
H686        H  0.01213738  0.69655254  0.89748851     0.12700
H687        H  0.02892029  0.77983789  0.60603517     0.12700
H688        H  0.01952190  0.71292166  0.59866538     0.13000
H689        H  0.01288941  0.77111393  0.75494429     0.26000
H690        H  0.00452419  0.71343370  0.74773314     0.26000
N691        N  0.30629364  0.51466179  0.74811518    -0.36800
N692        N  0.25478850  0.51555588  0.81255943    -0.57300
N693        N  0.20219646  0.50572057  0.74889883    -0.36800
N694        N  0.25397872  0.50835392  0.68495162    -0.57300
C695        C  0.32420436  0.52534727  0.78118513     0.26800
C696        C  0.32431523  0.52033105  0.71434788     0.26800
C697        C  0.18156920  0.51118696  0.78236069     0.26800
C698        C  0.18077684  0.50961198  0.71500132     0.26800
C699        C  0.28459521  0.51228498  0.83614701     0.35400
C700        C  0.22903708  0.50774933  0.83669335     0.35400
C701        C  0.28279976  0.50209645  0.66137966     0.35400
C702        C  0.22691490  0.50016452  0.66131523     0.35400
C703        C  0.35364529  0.53853274  0.76829925    -0.22100
C704        C  0.35393170  0.53502431  0.72614195    -0.22100
C705        C  0.14650592  0.51798078  0.76955433    -0.22100
C706        C  0.14601233  0.51712150  0.72711360    -0.22100
C707        C  0.27759583  0.50295879  0.87565818    -0.23100
C708        C  0.24231887  0.50040782  0.87609349    -0.23100
C709        C  0.27388893  0.49049305  0.62233507    -0.23100
C710        C  0.23841003  0.48934798  0.62226444    -0.23100
C711        C  0.31779812  0.51833836  0.82253899    -0.18500
C712        C  0.31651875  0.50903418  0.67391451    -0.18500
C713        C  0.19155422  0.50446370  0.67352479    -0.18500
C714        C  0.19342195  0.50838919  0.82407695    -0.18500
H715        H  0.37378121  0.54808293  0.78748689     0.14400
H716        H  0.37430982  0.54161209  0.70677657     0.14400
H717        H  0.12360456  0.52282167  0.78878289     0.14400
H718        H  0.12264446  0.52109276  0.70742277     0.14400
H719        H  0.29589744  0.49837761  0.90150982     0.12700
H720        H  0.22815569  0.49351689  0.90228706     0.12700
H721        H  0.29095779  0.48415211  0.59636538     0.12700
H722        H  0.22280671  0.48168023  0.59632411     0.12700
H723        H  0.28663447  0.49896737  0.74908163     0.26000
H724        H  0.22894541  0.49624079  0.74923229     0.26000
C725        C  0.15245995  0.97557639  0.63480846    -0.26500
C726        C  0.16427860  0.50346760  0.64052116    -0.14600
C727        C  0.15321390  0.53278745  0.61565720     0.36100
C728        C  0.12702868  0.53103460  0.58534108    -0.25900
C729        C  0.11132787  0.50046937  0.57910375    -0.15200
C730        C  0.12616395  0.97383750  0.60420809     0.37200
N731        N  0.11291049  0.94133129  0.59706967    -0.89400
H732        H  0.16198824  0.95246942  0.65260678     0.18300
H733        H  0.11792824  0.55437455  0.56778055     0.18300
N734        N  0.16756305  0.56489267  0.62124934    -0.88500
H735        H  0.10320945  0.93405355  0.62478155     0.35600
H736        H  0.13399282  0.92209036  0.58878074     0.40700
H737        H  0.19467218  0.55957519  0.61650747     0.40400
H738        H  0.16351549  0.57388853  0.65164192     0.35200
C739        C  0.15464858  0.53818840  0.87907503    -0.26500
C740        C  0.16683351  0.50736563  0.85651176    -0.14600
C741        C  0.15350895  0.98165449  0.86339609     0.36100
C742        C  0.12771025  0.98027619  0.89258516    -0.25900
C743        C  0.11508354  0.00985667  0.91744723    -0.15200
C744        C  0.12835791  0.53887945  0.90865822     0.37200
N745        N  0.11609858  0.57111571  0.93076801    -0.89400
H746        H  0.16536373  0.56197504  0.87302331     0.18300
H747        H  0.11659186  0.95615144  0.89463713     0.18300
N748        N  0.16530002  0.95066328  0.83908036    -0.88500
H749        H  0.12888279  0.59149086  0.92109468     0.35600
H750        H  0.12320520  0.56723920  0.96177593     0.40700
H751        H  0.19256283  0.94417030  0.84340501     0.40400
H752        H  0.15998669  0.95625057  0.80806153     0.35200
C753        C  0.35815416  0.53126486  0.62672468    -0.26500
C754        C  0.34539591  0.50270977  0.64386555    -0.14600
C755        C  0.36025458  0.46801878  0.63274036     0.36100
C756        C  0.38753078  0.46253889  0.60439063    -0.25900
C757        C  0.40106539  0.49102399  0.58825542    -0.15200
C758        C  0.38639332  0.52574829  0.59948536     0.37200
N759        N  0.40010568  0.55512960  0.58310135    -0.89400
H760        H  0.34637433  0.55783070  0.63520309     0.18300
H761        H  0.40179278  0.93653572  0.60134077     0.18300
N762        N  0.34750302  0.43858630  0.65036732    -0.88500
H763        H  0.38652148  0.57886980  0.59467861     0.35600
H764        H  0.39539714  0.55492748  0.55128038     0.40700
H765        H  0.35869743  0.94071493  0.68991032     0.40400
H766        H  0.36619836  0.91542106  0.64729325     0.35200
C767        C  0.34987743  0.53660667  0.88594747    -0.26500
C768        C  0.34870141  0.51393144  0.85158080    -0.14600
C769        C  0.37527149  0.98916705  0.85166324     0.36100
C770        C  0.40527344  0.98514973  0.87745611    -0.25900
C771        C  0.40873218  0.50705167  0.90464671    -0.15200
C772        C  0.37911215  0.53288434  0.91310591     0.37200
N773        N  0.37775031  0.55559092  0.94883488    -0.89400
H774        H  0.32771596  0.55701115  0.89195344     0.18300
H775        H  0.42539367  0.96244805  0.87278604     0.18300
N776        N  0.37132922  0.96347797  0.81955863    -0.88500
H777        H  0.39977587  0.56846387  0.94947827     0.35600
H778        H  0.37852553  0.54020540  0.97494966     0.40700
H779        H  0.34945588  0.95166716  0.82633355     0.40400
H780        H  0.39306804  0.94345365  0.81935863     0.35200
C781        C  0.46823623  0.62131691  0.59231910    -0.26500
C782        C  0.99617355  0.59338158  0.60016565    -0.14600
C783        C  0.02050954  0.59831005  0.63240791     0.36100
C784        C  0.01879163  0.63124103  0.65194746    -0.25900
C785        C  0.99288750  0.65953417  0.64093869    -0.15200
C786        C  0.46453696  0.65347968  0.61434111     0.37200
N787        N  0.43671099  0.68087096  0.60200508    -0.89400
H788        H  0.45091693  0.61890924  0.56586899     0.18300
H789        H  0.03689340  0.63442625  0.67745728     0.18300
N790        N  0.04741891  0.57073432  0.64590567    -0.88500
H791        H  0.44242596  0.68862524  0.57266059     0.35600
H792        H  0.43543010  0.70311693  0.62129722     0.40700
H793        H  0.06322655  0.56187374  0.62097852     0.40400
H794        H  0.03551475  0.55006668  0.65642687     0.35200
C795        C  0.46386650  0.64990942  0.87724701    -0.26500
C796        C  0.98755730  0.64830415  0.84129095    -0.14600
C797        C  0.01179248  0.61796991  0.83171890     0.36100
C798        C  0.01272713  0.58760261  0.85487852    -0.25900
C799        C  0.49256124  0.59017488  0.89090371    -0.15200
C800        C  0.46529832  0.61860151  0.89860801     0.37200
N801        N  0.43888026  0.61579283  0.92807357    -0.89400
H802        H  0.44256407  0.67135919  0.88275264     0.18300
H803        H  0.03257479  0.56504958  0.84832597     0.18300
N804        N  0.03599992  0.61826593  0.79898497    -0.88500
H805        H  0.41428848  0.62034023  0.91298218     0.35600
H806        H  0.43966414  0.63567104  0.95051439     0.40700
H807        H  0.03198272  0.59831910  0.77769529     0.40400
H808        H  0.06158522  0.61228541  0.81125656     0.35200
C809        C  0.48062213  0.84790616  0.62152252    -0.26500
C810        C  0.00949229  0.84065280  0.65577962    -0.14600
C811        C  0.03495877  0.86318084  0.66428855     0.36100
C812        C  0.03464132  0.89341747  0.64083670    -0.25900
C813        C  0.01103744  0.90077224  0.60737939    -0.15200
C814        C  0.48185207  0.87713619  0.59653712     0.37200
N815        N  0.45572870  0.88542608  0.56436499    -0.89400
H816        H  0.45978968  0.83209143  0.61652452     0.18300
H817        H  0.05319616  0.91118031  0.64873967     0.18300
N818        N  0.06175969  0.85604501  0.69595094    -0.88500
H819        H  0.43711968  0.86824330  0.56452235     0.35600
H820        H  0.46845679  0.88085642  0.53626534     0.40700
H821        H  0.06176165  0.83153314  0.70896106     0.40400
H822        H  0.05637674  0.87522141  0.71927345     0.35200
C823        C  0.03105637  0.86685953  0.90981783    -0.26500
C824        C  0.99934924  0.88328596  0.92736303    -0.14600
C825        C  0.46615421  0.87389131  0.91706393     0.36100
C826        C  0.46671117  0.84681360  0.88730998    -0.25900
C827        C  0.99965425  0.82810440  0.86781974    -0.15200
C828        C  0.03147026  0.83955175  0.88007765     0.37200
N829        N  0.06396376  0.82364177  0.86189556    -0.89400
H830        H  0.05552975  0.87631748  0.91796304     0.18300
H831        H  0.44261501  0.83645775  0.87954510     0.18300
N832        N  0.43325367  0.88649518  0.93606086    -0.88500
H833        H  0.08514973  0.83457052  0.87481169     0.35600
H834        H  0.06259799  0.82978974  0.83069664     0.40700
H835        H  0.42519930  0.91274909  0.92834534     0.40400
H836        H  0.43666069  0.88456720  0.96797215     0.35200
O837        O  0.97113912  0.98259720  0.41844601    -0.80300
O838        O  0.01569485  0.03106981  0.08608747    -0.80300
O839        O  0.92910051  0.46397175  0.03447319    -0.80300
O840        O  0.48926113  0.06421215  0.45511781    -0.80300
O841        O  0.95804679  0.00072788  0.06398239    -0.80400
O842        O  0.01590557  0.02939103  0.40860156    -0.80300
O843        O  0.49195308  0.06373948  0.03985123    -0.80300
O844        O  0.93986948  0.50707645  0.47216370    -0.80300
C845        C  0.94256987  0.99803054  0.43408669     1.09400
C846        C  0.99997155  0.06047584  0.07414656     1.09300
C847        C  0.93136853  0.98396313  0.05944290     1.09400
C848        C  0.99865592  0.05895087  0.41976127     1.09300
O849        O  0.56966424  0.48290509  0.44464438    -0.80300
O850        O  0.51081049  0.46388564  0.10234171    -0.80400
O851        O  0.97049711  0.43408229  0.46815866    -0.80300
O852        O  0.56740379  0.03193059  0.04125893    -0.80300
O853        O  0.56185839  0.47864066  0.05032275    -0.80400
O854        O  0.52497653  0.43434194  0.45280250    -0.80300
O855        O  0.56456618  0.03690003  0.45380102    -0.80300
O856        O  0.99749851  0.43720460  0.04592510    -0.80300
Co857      Co  0.01975760  0.48127118  0.43571830     1.51500
Co858      Co  0.51192404  0.98783414  0.05472299     1.51700
Co859      Co  0.96914755  0.47661468  0.00945378     1.51600
Co860      Co  0.52570792  0.04715624  0.49590973     1.51500
O861        O  0.01135715  0.00025050  0.49461247    -1.42200
C862        C  0.58136674  0.51157410  0.44082223     1.09300
C863        C  0.50374474  0.43630458  0.08377899     1.09400
C864        C  0.49766920  0.41984934  0.45125253     1.09300
C865        C  0.57806998  0.50506001  0.05375501     1.09300
N866        N  0.49740620  0.30018707  0.25801339    -0.36800
N867        N  0.49017372  0.24488991  0.31562105    -0.57300
N868        N  0.48902860  0.19787324  0.24656986    -0.36800
N869        N  0.49440763  0.25259716  0.18843795    -0.57300
C870        C  0.48878992  0.31880109  0.29314223     0.26800
C871        C  0.49106748  0.32282325  0.22650321     0.26800
C872        C  0.47860652  0.17857299  0.27675344     0.26800
C873        C  0.48053378  0.18279397  0.21055205     0.26800
C874        C  0.49848292  0.26979669  0.34240996     0.35400
C875        C  0.49471186  0.21437928  0.33608513     0.35400
C876        C  0.50479502  0.27977878  0.16910904     0.35400
C877        C  0.50146175  0.22404100  0.16320860     0.35400
C878        C  0.47665921  0.35364174  0.28388684    -0.22100
C879        C  0.47778722  0.35611247  0.24177825    -0.22100
C880        C  0.46262311  0.15141938  0.25981988    -0.22100
C881        C  0.46381522  0.15408060  0.21791074    -0.22100
C882        C  0.50782415  0.25524914  0.38047085    -0.23100
C883        C  0.50558357  0.21990534  0.37637593    -0.23100
C884        C  0.51811207  0.26858420  0.13093857    -0.23100
C885        C  0.51610172  0.23307538  0.12725928    -0.23100
C886        C  0.49486811  0.30580209  0.33343385    -0.18500
C887        C  0.50023978  0.31474461  0.18501078    -0.18500
C888        C  0.49275259  0.19069395  0.17195404    -0.18500
C889        C  0.48727220  0.18228019  0.31878365    -0.18500
H890        H  0.46848936  0.37520669  0.30530463     0.14400
H891        H  0.47075446  0.37994243  0.22449738     0.14400
H892        H  0.45249931  0.13098412  0.27599915     0.14400
H893        H  0.45491350  0.13592173  0.19542866     0.14400
H894        H  0.51512288  0.26874480  0.40828510     0.12700
H895        H  0.51088651  0.20066269  0.40033004     0.12700
H896        H  0.52810198  0.28433643  0.10818099     0.12700
H897        H  0.52403457  0.21600890  0.10105737     0.13000
H898        H  0.51131871  0.27477138  0.25632223     0.26000
H899        H  0.50630926  0.21613517  0.25014930     0.26000
N900        N  0.80878661  0.01099685  0.24899954    -0.36800
N901        N  0.75731737  0.01284049  0.31379255    -0.57300
N902        N  0.70413261  0.00426088  0.25067108    -0.36800
N903        N  0.75565981  0.00555735  0.18630198    -0.57300
C904        C  0.82785724  0.01951214  0.28220346     0.26800
C905        C  0.82661544  0.01696590  0.21516332     0.26800
C906        C  0.68376620  0.01260864  0.28397717     0.26800
C907        C  0.68286146  0.00900312  0.21674556     0.26800
C908        C  0.78727611  0.00793813  0.33708451     0.35400
C909        C  0.73114647  0.00621288  0.33809283     0.35400
C910        C  0.78429059  0.99956018  0.16242918     0.35400
C911        C  0.72876582  0.99600700  0.16345567     0.35400
C912        C  0.85807264  0.03132105  0.26938660    -0.22100
C913        C  0.85735302  0.02960370  0.22708145    -0.22100
C914        C  0.64904900  0.02249848  0.27104619    -0.22100
C915        C  0.64848067  0.02024495  0.22863153    -0.22100
C916        C  0.77999359  0.99868279  0.37654083    -0.23100
C917        C  0.74437254  0.99782279  0.37724231    -0.23100
C918        C  0.77543338  0.98662043  0.12397689    -0.23100
C919        C  0.74020283  0.98424782  0.12467757    -0.23100
C920        C  0.82086581  0.01283472  0.32353452    -0.18500
C921        C  0.81785176  0.00736513  0.17435878    -0.18500
C922        C  0.69338936  0.00139806  0.17557028    -0.18500
C923        C  0.69529270  0.00886385  0.32568092    -0.18500
H924        H  0.87909191  0.03918312  0.28859160     0.14400
H925        H  0.87778622  0.03585095  0.20752965     0.14400
H926        H  0.62639825  0.03009123  0.29022002     0.14400
H927        H  0.62530977  0.02582536  0.20882163     0.14400
H928        H  0.79836233  0.99315018  0.40219275     0.12700
H929        H  0.72991852  0.99147757  0.40345909     0.12700
H930        H  0.79240104  0.98002774  0.09796093     0.12700
H931        H  0.72460931  0.97561497  0.09926540     0.12700
H932        H  0.78795147  0.99677885  0.24976368     0.26000
H933        H  0.73018174  0.99201914  0.25119649     0.26000
C934        C  0.64856767  0.47950118  0.13714476    -0.26500
C935        C  0.66599274  0.00062692  0.14269170    -0.14600
C936        C  0.65684244  0.02914780  0.11614451     0.36100
C937        C  0.63103505  0.02754406  0.08537172    -0.25900
C938        C  0.61318189  0.99828400  0.08090130    -0.15200
C939        C  0.62177540  0.47618225  0.10763829     0.37200
N940        N  0.60497723  0.44544544  0.10734084    -0.89400
H941        H  0.65634700  0.45855699  0.15871987     0.18300
H942        H  0.62374837  0.05022520  0.06615329     0.18300
N943        N  0.67259069  0.06051008  0.12065273    -0.88500
H944        H  0.59483095  0.44356343  0.13657064     0.35600
H945        H  0.62421379  0.42347422  0.10243087     0.40700
H946        H  0.69971865  0.05396645  0.11669304     0.40400
H947        H  0.66827615  0.07069311  0.15054781     0.35200
C948        C  0.65843615  0.03672655  0.38390483    -0.26500
C949        C  0.66831528  0.00746968  0.35770001    -0.14600
C950        C  0.65026973  0.48295667  0.35989809     0.36100
C951        C  0.62450290  0.48237238  0.38946566    -0.25900
C952        C  0.61251500  0.51226645  0.41425775    -0.15200
C953        C  0.63151526  0.03699274  0.41274973     0.37200
N954        N  0.62197319  0.06732679  0.43918602    -0.89400
H955        H  0.67144647  0.05963360  0.38134283     0.18300
H956        H  0.61303171  0.45850626  0.39205427     0.18300
N957        N  0.66093452  0.45181016  0.33538943    -0.88500
H958        H  0.63721255  0.08685025  0.43318391     0.35600
H959        H  0.62812836  0.05959353  0.46945155     0.40700
H960        H  0.68810937  0.44438029  0.33953772     0.40400
H961        H  0.65572810  0.45774519  0.30442902     0.35200
C962        C  0.85742727  0.03085569  0.12529077    -0.26500
C963        C  0.84627189  0.00193530  0.14370391    -0.14600
C964        C  0.86277842  0.96757849  0.13391280     0.36100
C965        C  0.88969080  0.96264230  0.10520379    -0.25900
C966        C  0.90142164  0.99134402  0.08729304    -0.15200
C967        C  0.88540622  0.02588898  0.09751516     0.37200
N968        N  0.89755114  0.05556504  0.07974083    -0.89400
H969        H  0.84466987  0.05721313  0.13319825     0.18300
H970        H  0.89723252  0.44193168  0.09988662     0.18300
N971        N  0.85213462  0.93787717  0.15340597    -0.88500
H972        H  0.88304182  0.07910188  0.09061222     0.35600
H973        H  0.89264661  0.05430415  0.04800269     0.40700
H974        H  0.85270079  0.44835448  0.18733056     0.40400
H975        H  0.85921936  0.42310033  0.14454083     0.35200
C976        C  0.85286151  0.03333549  0.38564027    -0.26500
C977        C  0.85120072  0.00868510  0.35329840    -0.14600
C978        C  0.87534091  0.48713453  0.34793452     0.36100
C979        C  0.90524205  0.48314793  0.37396343    -0.25900
C980        C  0.91031567  0.00267025  0.40755232    -0.15200
C981        C  0.88185230  0.03035587  0.41314286     0.37200
N982        N  0.88191224  0.05617314  0.44569015    -0.89400
H983        H  0.83151165  0.05504116  0.38940715     0.18300
H984        H  0.92626176  0.46154212  0.36795517     0.18300
N985        N  0.87278469  0.46289808  0.31390490    -0.88500
H986        H  0.90473749  0.06766731  0.44381978     0.35600
H987        H  0.88228054  0.04358144  0.47382324     0.40700
H988        H  0.85168397  0.44951997  0.31932010     0.40400
H989        H  0.89533316  0.44387543  0.31259876     0.35200
C990        C  0.97025003  0.12135330  0.08982075    -0.26500
C991        C  0.50061656  0.09457283  0.10166512    -0.14600
C992        C  0.52751060  0.10066593  0.13035316     0.36100
C993        C  0.52614923  0.13370651  0.14973901    -0.25900
C994        C  0.49830920  0.16098422  0.14173560    -0.15200
C995        C  0.96768602  0.15411803  0.11055587     0.37200
N996        N  0.93859404  0.18086252  0.10015152    -0.89400
H997        H  0.95096231  0.11781072  0.06573627     0.18300
H998        H  0.54611095  0.13767222  0.17286267     0.18300
N999        N  0.55682984  0.07424570  0.13998498    -0.88500
H1000       H  0.94137873  0.18746811  0.06953993     0.35600
H1001       H  0.93908847  0.20384938  0.11779173     0.40700
H1002       H  0.56995604  0.06652284  0.11280424     0.40400
H1003       H  0.54747364  0.05263757  0.15211124     0.35200
C1004       C  0.96996971  0.14986944  0.37615630    -0.26500
C1005       C  0.48945379  0.15064903  0.34447932    -0.14600
C1006       C  0.51530836  0.12119453  0.33688325     0.36100
C1007       C  0.51564474  0.09048121  0.35920106    -0.25900
C1008       C  0.99421437  0.08920105  0.39184828    -0.15200
C1009       C  0.96978014  0.11994574  0.39979984     0.37200
N1010       N  0.94475220  0.12101316  0.43187371    -0.89400
H1011       H  0.95082178  0.17315661  0.38195252     0.18300
H1012       H  0.53634714  0.06844084  0.35375156     0.18300
N1013       N  0.54175980  0.12277334  0.30702268    -0.88500
H1014       H  0.91949590  0.12717630  0.41873417     0.35600
H1015       H  0.94869762  0.14135052  0.45265226     0.40700
H1016       H  0.54026614  0.10267871  0.28503542     0.40400
H1017       H  0.56641394  0.11780069  0.32191482     0.35200
C1018       C  0.98497804  0.34837666  0.12116749    -0.26500
C1019       C  0.50332656  0.34433773  0.15706053    -0.14600
C1020       C  0.52916156  0.36653623  0.16389633     0.36100
C1021       C  0.52900106  0.39593876  0.13937824    -0.25900
C1022       C  0.50458849  0.40323318  0.10670431    -0.15200
C1023       C  0.98543164  0.37785783  0.09658735     0.37200
N1024       N  0.96087798  0.38401020  0.06266922    -0.89400
H1025       H  0.96532974  0.33142005  0.11472512     0.18300
H1026       H  0.54819990  0.41324339  0.14598975     0.18300
N1027       N  0.55637059  0.35945639  0.19489527    -0.88500
H1028       H  0.93543066  0.38552667  0.07389751     0.35600
H1029       H  0.96529472  0.36230190  0.04238476     0.40700
H1030       H  0.56969712  0.33395884  0.18978178     0.40400
H1031       H  0.54509928  0.36077184  0.22385214     0.35200
C1032       C  0.52832784  0.37151825  0.40720208    -0.26500
C1033       C  0.49703512  0.38699610  0.42626805    -0.14600
C1034       C  0.96935049  0.36834851  0.41896620     0.36100
C1035       C  0.97096689  0.34126413  0.38897313    -0.25900
C1036       C  0.49671372  0.33156903  0.36770102    -0.15200
C1037       C  0.52834178  0.34435304  0.37753333     0.37200
N1038       N  0.56016212  0.33007444  0.35679773    -0.89400
H1039       H  0.55267772  0.38168528  0.41397225     0.18300
H1040       H  0.94750487  0.32974447  0.38138470     0.18300
N1041       N  0.93648819  0.37902680  0.43887270    -0.88500
H1042       H  0.58129314  0.34201330  0.36803670     0.35600
H1043       H  0.55668150  0.33650789  0.32575274     0.40700
H1044       H  0.92674356  0.40498446  0.43125644     0.40400
H1045       H  0.94076727  0.37740355  0.47070728     0.35200
O1046       O  0.96966937  0.98144972  0.91668019    -0.80300
O1047       O  0.01484159  0.03247228  0.58768422    -0.80300
O1048       O  0.92920449  0.46147992  0.53203227    -0.80300
O1049       O  0.49308050  0.06611377  0.95823077    -0.80300
O1050       O  0.95878846  0.00014652  0.56614664    -0.80400
O1051       O  0.01475298  0.02845020  0.90659270    -0.80300
O1052       O  0.49001469  0.06313589  0.53710554    -0.80300
O1053       O  0.93848788  0.50842079  0.97226190    -0.80300
C1054       C  0.94141156  0.99721591  0.93273365     1.09400
C1055       C  0.99851805  0.06167983  0.57563114     1.09300
C1056       C  0.93223320  0.98324916  0.56143462     1.09400
C1057       C  0.99721168  0.05774745  0.91842117     1.09300
O1058       O  0.57025457  0.48121400  0.94759704    -0.80300
O1059       O  0.51474729  0.46142879  0.60141222    -0.80400
O1060       O  0.96830668  0.43594788  0.96961994    -0.80300
O1061       O  0.56531917  0.03300940  0.53719053    -0.80300
O1062       O  0.56277675  0.47788355  0.54676357    -0.80400
O1063       O  0.52463363  0.43391572  0.95346840    -0.80300
O1064       O  0.56732962  0.03842856  0.95831724    -0.80300
O1065       O  0.99723599  0.43515150  0.54648981    -0.80300
Co1066     Co  0.01863062  0.48132003  0.93534054     1.51500
Co1067     Co  0.51207905  0.98636506  0.55258604     1.51700
Co1068     Co  0.96980928  0.47456585  0.50903359     1.51600
Co1069     Co  0.52836491  0.04794216  0.99962010     1.51500
O1070       O  0.01124542  0.99882907  0.99283581    -1.42200
C1071       C  0.58257866  0.50940915  0.94330869     1.09300
C1072       C  0.50860906  0.43387047  0.58209356     1.09400
C1073       C  0.49705286  0.41999120  0.95048048     1.09300
C1074       C  0.57872415  0.50423479  0.55166948     1.09300
N1075       N  0.49916870  0.29926739  0.75409263    -0.36800
N1076       N  0.49447044  0.24528540  0.81330560    -0.57300
N1077       N  0.48976697  0.19739063  0.74586531    -0.36800
N1078       N  0.49289271  0.25081585  0.68574915    -0.57300
C1079       C  0.49017529  0.31877172  0.78858800     0.26800
C1080       C  0.49263942  0.32089706  0.72171491     0.26800
C1081       C  0.48112210  0.17882092  0.77767627     0.26800
C1082       C  0.47763967  0.18270167  0.71132151     0.26800
C1083       C  0.50254204  0.27103652  0.83902838     0.35400
C1084       C  0.50136364  0.21502183  0.83411681     0.35400
C1085       C  0.50492487  0.27660819  0.66550016     0.35400
C1086       C  0.49773075  0.22175541  0.66104527     0.35400
C1087       C  0.47737247  0.35313812  0.77795334    -0.22100
C1088       C  0.47863601  0.35441810  0.73568282    -0.22100
C1089       C  0.46248447  0.15263977  0.76340886    -0.22100
C1090       C  0.46026331  0.15509946  0.72133718    -0.22100
C1091       C  0.51431812  0.25724628  0.87676445    -0.23100
C1092       C  0.51394703  0.22150020  0.87348552    -0.23100
C1093       C  0.51703785  0.26398836  0.62724722    -0.23100
C1094       C  0.51232310  0.22911328  0.62437897    -0.23100
C1095       C  0.49659410  0.30696389  0.82938813    -0.18500
C1096       C  0.50263072  0.31172447  0.68069019    -0.18500
C1097       C  0.48779021  0.18930762  0.67139340    -0.18500
C1098       C  0.49332317  0.18256362  0.81847441    -0.18500
H1099       H  0.46882135  0.37519333  0.79855766     0.14400
H1100       H  0.47133565  0.37765252  0.71742439     0.14400
H1101       H  0.45277789  0.13296855  0.78132453     0.14400
H1102       H  0.44884566  0.13742947  0.70031803     0.14400
H1103       H  0.52205848  0.27146506  0.90382390     0.12700
H1104       H  0.52123623  0.20268840  0.89756816     0.12700
H1105       H  0.52794897  0.27836942  0.60383467     0.12700
H1106       H  0.51880697  0.21128873  0.59842249     0.13000
H1107       H  0.51352819  0.27400952  0.75307143     0.26000
H1108       H  0.50811632  0.21472461  0.74710631     0.26000
N1109       N  0.80728445  0.01261066  0.74978918    -0.36800
N1110       N  0.75442651  0.01547440  0.81263104    -0.57300
N1111       N  0.70140325  0.01115505  0.74743228    -0.36800
N1112       N  0.75435183  0.01223986  0.68481066    -0.57300
C1113       C  0.82628901  0.01962835  0.78376943     0.26800
C1114       C  0.82633851  0.01798634  0.71671714     0.26800
C1115       C  0.68048497  0.01769401  0.78053993     0.26800
C1116       C  0.68048164  0.01640534  0.71324702     0.26800
C1117       C  0.78360825  0.01029797  0.83725343     0.35400
C1118       C  0.72720234  0.01023826  0.83599731     0.35400
C1119       C  0.78351805  0.00503153  0.66185328     0.35400
C1120       C  0.72720346  0.00500324  0.66051176     0.35400
C1121       C  0.85763583  0.02986410  0.77217637    -0.22100
C1122       C  0.85776284  0.02863903  0.72989971    -0.22100
C1123       C  0.64575365  0.02687635  0.76722797    -0.22100
C1124       C  0.64576190  0.02617152  0.72479510    -0.22100
C1125       C  0.77477898  0.00251638  0.87666286    -0.23100
C1126       C  0.73901120  0.00268145  0.87593798    -0.23100
C1127       C  0.77471325  0.99398740  0.62251950    -0.23100
C1128       C  0.73906244  0.99377934  0.62174117    -0.23100
C1129       C  0.81798228  0.01330053  0.82479669    -0.18500
C1130       C  0.81776389  0.00973126  0.67538846    -0.18500
C1131       C  0.69156310  0.01016624  0.67202440    -0.18500
C1132       C  0.69162315  0.01336733  0.82231373    -0.18500
H1133       H  0.87877021  0.03644785  0.79216466     0.14400
H1134       H  0.87910522  0.03403077  0.71119801     0.14400
H1135       H  0.62273220  0.03306774  0.78612066     0.14400
H1136       H  0.62273834  0.03168965  0.70472798     0.14400
H1137       H  0.79222316  0.99725306  0.90319117     0.12700
H1138       H  0.72352208  0.99757862  0.90183006     0.12700
H1139       H  0.79206913  0.98693799  0.59694143     0.12700
H1140       H  0.72359615  0.98646198  0.59550041     0.12700
H1141       H  0.78548581  0.99969380  0.74933656     0.26000
H1142       H  0.72764138  0.99971211  0.74811128     0.26000
C1143       C  0.64755996  0.47414387  0.63454099    -0.26500
C1144       C  0.66438936  0.00776834  0.63903556    -0.14600
C1145       C  0.65543405  0.03450175  0.60999497     0.36100
C1146       C  0.62976780  0.03098523  0.57946628    -0.25900
C1147       C  0.61167825  0.00175224  0.57785158    -0.15200
C1148       C  0.62180214  0.47234059  0.60356950     0.37200
N1149       N  0.60617798  0.44096526  0.59888149    -0.89400
H1150       H  0.65537143  0.45176882  0.65412113     0.18300
H1151       H  0.62273438  0.05222742  0.55811520     0.18300
N1152       N  0.67090005  0.06613305  0.61189156    -0.88500
H1153       H  0.59565138  0.43636677  0.62714811     0.35600
H1154       H  0.62617052  0.42000216  0.59245829     0.40700
H1155       H  0.69807209  0.05960958  0.60839119     0.40400
H1156       H  0.66628042  0.07801664  0.64094985     0.35200
C1157       C  0.65215854  0.04274393  0.87675573    -0.26500
C1158       C  0.66452720  0.01217575  0.85391597    -0.14600
C1159       C  0.65237639  0.47614159  0.86576942     0.36100
C1160       C  0.62703380  0.47713830  0.89597662    -0.25900
C1161       C  0.61402326  0.50870646  0.91726662    -0.15200
C1162       C  0.62740599  0.04244094  0.90788175     0.37200
N1163       N  0.61506391  0.07438814  0.93051489    -0.89400
H1164       H  0.66194280  0.06693600  0.87019464     0.18300
H1165       H  0.61660774  0.45312631  0.90167944     0.18300
N1166       N  0.66417078  0.44340016  0.84474943    -0.88500
H1167       H  0.62633309  0.09538754  0.91970511     0.35600
H1168       H  0.62388550  0.07081168  0.96104103     0.40700
H1169       H  0.69145702  0.43730535  0.84914662     0.40400
H1170       H  0.65874715  0.44659511  0.81327465     0.35200
C1171       C  0.86028078  0.03164962  0.62891020    -0.26500
C1172       C  0.84671072  0.00325594  0.64534187    -0.14600
C1173       C  0.86066128  0.96854485  0.63333298     0.36100
C1174       C  0.88771316  0.96284391  0.60466398    -0.25900
C1175       C  0.90193816  0.99107429  0.58890672    -0.15200
C1176       C  0.88813744  0.02587360  0.60105044     0.37200
N1177       N  0.90224543  0.05508511  0.58482615    -0.89400
H1178       H  0.84929871  0.05825774  0.63820790     0.18300
H1179       H  0.89250134  0.43852802  0.58937595     0.18300
N1180       N  0.84713587  0.93929233  0.65033478    -0.88500
H1181       H  0.88926979  0.07888772  0.59697215     0.35600
H1182       H  0.89704765  0.05534374  0.55308725     0.40700
H1183       H  0.84872481  0.43835070  0.67628293     0.40400
H1184       H  0.85419895  0.41687096  0.63076843     0.35200
C1185       C  0.85066703  0.03283946  0.88697377    -0.26500
C1186       C  0.84776360  0.00783524  0.85535831    -0.14600
C1187       C  0.87541901  0.48115865  0.84918726     0.36100
C1188       C  0.90493158  0.47933310  0.87561568    -0.25900
C1189       C  0.90836196  0.00159766  0.90743950    -0.15200
C1190       C  0.88026470  0.02960269  0.91358596     0.37200
N1191       N  0.88131321  0.05552512  0.94581420    -0.89400
H1192       H  0.82995489  0.05515520  0.89068774     0.18300
H1193       H  0.92668434  0.45820812  0.87083933     0.18300
N1194       N  0.87409613  0.45530445  0.81659127    -0.88500
H1195       H  0.90436887  0.06648355  0.94324371     0.35600
H1196       H  0.88195914  0.04305456  0.97404002     0.40700
H1197       H  0.85346538  0.44146911  0.82264372     0.40400
H1198       H  0.89715244  0.43689512  0.81660590     0.35200
C1199       C  0.96794811  0.12251314  0.59027551    -0.26500
C1200       C  0.49687922  0.09290975  0.60022669    -0.14600
C1201       C  0.52263286  0.09884088  0.63040595     0.36100
C1202       C  0.52006634  0.13150033  0.65079720    -0.25900
C1203       C  0.49225949  0.15870941  0.64226532    -0.15200
C1204       C  0.96450294  0.15534381  0.61098396     0.37200
N1205       N  0.93609824  0.18219548  0.59877308    -0.89400
H1206       H  0.94956084  0.11887284  0.56523420     0.18300
H1207       H  0.53948757  0.13543130  0.67460086     0.18300
N1208       N  0.55216439  0.07273450  0.64041400    -0.88500
H1209       H  0.94042336  0.18859458  0.56845199     0.35600
H1210       H  0.93598203  0.20526280  0.61644121     0.40700
H1211       H  0.56632146  0.06576933  0.61370069     0.40400
H1212       H  0.54295896  0.05062572  0.65144730     0.35200
C1213       C  0.96295526  0.14894128  0.87811835    -0.26500
C1214       C  0.49600485  0.15157578  0.84530267    -0.14600
C1215       C  0.51788960  0.11985603  0.83488146     0.36100
C1216       C  0.51778165  0.09002448  0.85871035    -0.25900
C1217       C  0.98942384  0.08806725  0.89053729    -0.15200
C1218       C  0.96531099  0.11847179  0.90142932     0.37200
N1219       N  0.94332546  0.11880776  0.93639657    -0.89400
H1220       H  0.94436260  0.17198267  0.88661718     0.18300
H1221       H  0.53531515  0.06609023  0.85071680     0.18300
N1222       N  0.54055304  0.11804805  0.80031483    -0.88500
H1223       H  0.91709875  0.12517406  0.92634721     0.35600
H1224       H  0.94895825  0.13878523  0.95680966     0.40700
H1225       H  0.53408322  0.09841181  0.77992609     0.40400
H1226       H  0.56648558  0.11046463  0.81085572     0.35200
C1227       C  0.98139596  0.34897891  0.62536792    -0.26500
C1228       C  0.50818325  0.34046037  0.65254002    -0.14600
C1229       C  0.53242217  0.36389863  0.66247867     0.36100
C1230       C  0.53247577  0.39386632  0.63895916    -0.25900
C1231       C  0.51074792  0.40000358  0.60369799    -0.15200
C1232       C  0.98180515  0.37820431  0.60045493     0.37200
N1233       N  0.95566764  0.38541896  0.56835762    -0.89400
H1234       H  0.96088049  0.33278016  0.62030564     0.18300
H1235       H  0.54943970  0.41262263  0.64869065     0.18300
N1236       N  0.55793786  0.35752417  0.69548341    -0.88500
H1237       H  0.93092849  0.38698237  0.58146344     0.35600
H1238       H  0.95857253  0.36392860  0.54769087     0.40700
H1239       H  0.57224576  0.33234760  0.69114234     0.40400
H1240       H  0.54533168  0.35857451  0.72358300     0.35200
C1241       C  0.52811923  0.37278569  0.90485790    -0.26500
C1242       C  0.49661675  0.38775678  0.92397338    -0.14600
C1243       C  0.96353662  0.37214169  0.91916400     0.36100
C1244       C  0.96405658  0.34468585  0.88986332    -0.25900
C1245       C  0.49719084  0.33346622  0.86330539    -0.15200
C1246       C  0.52851793  0.34608772  0.87458554     0.37200
N1247       N  0.56069407  0.33217767  0.85473466    -0.89400
H1248       H  0.55253577  0.38263595  0.91226800     0.18300
H1249       H  0.93969361  0.33512277  0.88133347     0.18300
N1250       N  0.93036214  0.38597342  0.93684910    -0.88500
H1251       H  0.57899774  0.32198279  0.87736978     0.35600
H1252       H  0.57028000  0.35296600  0.84095938     0.40700
H1253       H  0.92323405  0.41216716  0.92839642     0.40400
H1254       H  0.93291874  0.38456434  0.96888681     0.35200
O1255       O  0.96866989  0.48266402  0.41834117    -0.80300
O1256       O  0.01511044  0.53338192  0.08552825    -0.80300
O1257       O  0.93128100  0.96052052  0.03136884    -0.80300
O1258       O  0.48888852  0.56597462  0.45668181    -0.80300
O1259       O  0.95792423  0.50301786  0.06618967    -0.80400
O1260       O  0.01450631  0.52849130  0.40774408    -0.80300
O1261       O  0.48869906  0.56493330  0.03647607    -0.80300
O1262       O  0.94118521  0.00586242  0.47224118    -0.80300
C1263       C  0.94064531  0.49936299  0.43407160     1.09400
C1264       C  0.99929245  0.56276572  0.07330899     1.09300
C1265       C  0.93052850  0.48729933  0.06245654     1.09400
C1266       C  0.99785129  0.55829141  0.41909668     1.09300
O1267       O  0.56880680  0.97970042  0.44360154    -0.80300
O1268       O  0.51301713  0.96215663  0.10414933    -0.80400
O1269       O  0.97309651  0.93412453  0.46867176    -0.80300
O1270       O  0.56423844  0.53473698  0.03921268    -0.80300
O1271       O  0.56330986  0.97599872  0.05081837    -0.80400
O1272       O  0.52256222  0.93289071  0.45346322    -0.80300
O1273       O  0.56400012  0.54004958  0.45521622    -0.80300
O1274       O  0.99945989  0.93508157  0.04512607    -0.80300
Co1275     Co  0.02180862  0.98205957  0.43615355     1.51500
Co1276     Co  0.50996456  0.48862795  0.05253511     1.51700
Co1277     Co  0.97144686  0.97398509  0.00785327     1.51600
Co1278     Co  0.52519750  0.54894753  0.49742075     1.51500
O1279       O  0.00983512  0.49941076  0.49411845    -1.42200
C1280       C  0.58152753  0.00789217  0.44016802     1.09300
C1281       C  0.50626669  0.93475780  0.08490591     1.09400
C1282       C  0.49477888  0.91920525  0.45229625     1.09300
C1283       C  0.58046713  0.00158945  0.05475859     1.09300
N1284       N  0.49776061  0.79937063  0.25794053    -0.36800
N1285       N  0.48584949  0.74561924  0.31566451    -0.57300
N1286       N  0.48274941  0.69852912  0.24683255    -0.36800
N1287       N  0.49225984  0.75160534  0.18860140    -0.57300
C1288       C  0.49008776  0.81888297  0.29276054     0.26800
C1289       C  0.49432296  0.82179029  0.22608918     0.26800
C1290       C  0.47134144  0.68019398  0.27722361     0.26800
C1291       C  0.47332740  0.68377000  0.21100641     0.26800
C1292       C  0.49427820  0.77031373  0.34266459     0.35400
C1293       C  0.48885311  0.71531142  0.33640252     0.35400
C1294       C  0.50423511  0.77765129  0.16877567     0.35400
C1295       C  0.49685543  0.72293028  0.16326313     0.35400
C1296       C  0.48196748  0.85413356  0.28296967    -0.22100
C1297       C  0.48427006  0.85593157  0.24093532    -0.22100
C1298       C  0.45375517  0.65403194  0.26067121    -0.22100
C1299       C  0.45497204  0.65630810  0.21869144    -0.22100
C1300       C  0.50185719  0.75592374  0.38114969    -0.23100
C1301       C  0.49882749  0.72080968  0.37703926    -0.23100
C1302       C  0.51591871  0.76566036  0.13015819    -0.23100
C1303       C  0.51136079  0.73080581  0.12673941    -0.23100
C1304       C  0.49287667  0.80604687  0.33338840    -0.18500
C1305       C  0.50253650  0.81252478  0.18447341    -0.18500
C1306       C  0.48612276  0.69054434  0.17234293    -0.18500
C1307       C  0.48083042  0.68345606  0.31901371    -0.18500
H1308       H  0.47545649  0.87636969  0.30395786     0.14400
H1309       H  0.47985610  0.87981575  0.22341950     0.14400
H1310       H  0.44263985  0.63440458  0.27716683     0.14400
H1311       H  0.44508400  0.63863627  0.19635146     0.14400
H1312       H  0.50884601  0.76930254  0.40918263     0.12700
H1313       H  0.50297184  0.70176273  0.40127639     0.12700
H1314       H  0.52648903  0.78048402  0.10690147     0.12700
H1315       H  0.51747084  0.71345417  0.10028795     0.13000
H1316       H  0.50882870  0.77296378  0.25665085     0.26000
H1317       H  0.50131632  0.71549779  0.25026168     0.26000
N1318       N  0.80608598  0.52180689  0.25077635    -0.36800
N1319       N  0.75420356  0.52087159  0.31369297    -0.57300
N1320       N  0.70182323  0.51386825  0.24823009    -0.36800
N1321       N  0.75385653  0.51798764  0.18573799    -0.57300
C1322       C  0.82444821  0.52995382  0.28477584     0.26800
C1323       C  0.82453132  0.52835763  0.21773473     0.26800
C1324       C  0.68104764  0.52075677  0.28142334     0.26800
C1325       C  0.68084366  0.51928479  0.21409823     0.26800
C1326       C  0.78386734  0.51491739  0.33744761     0.35400
C1327       C  0.72792014  0.51207803  0.33620803     0.35400
C1328       C  0.78316906  0.51217624  0.16293220     0.35400
C1329       C  0.72737870  0.50918510  0.16140332     0.35400
C1330       C  0.85462101  0.54254059  0.27324062    -0.22100
C1331       C  0.85481357  0.54129291  0.23091798    -0.22100
C1332       C  0.64638929  0.53054228  0.26821000    -0.22100
C1333       C  0.64626130  0.52960867  0.22575374    -0.22100
C1334       C  0.77632558  0.50269083  0.37542852    -0.23100
C1335       C  0.74078225  0.50111169  0.37473707    -0.23100
C1336       C  0.77505851  0.50052735  0.12359420    -0.23100
C1337       C  0.73972245  0.49848026  0.12269475    -0.23100
C1338       C  0.81739534  0.52128782  0.32542652    -0.18500
C1339       C  0.81689042  0.51852250  0.17666938    -0.18500
C1340       C  0.69179816  0.51287059  0.17285606    -0.18500
C1341       C  0.69219467  0.51556335  0.32309586    -0.18500
H1342       H  0.87522008  0.55019699  0.29329075     0.14400
H1343       H  0.87561595  0.54793434  0.21223054     0.14400
H1344       H  0.62347207  0.53708927  0.28719506     0.14400
H1345       H  0.62324882  0.53542727  0.20573704     0.14400
H1346       H  0.79447080  0.49568129  0.40095909     0.12700
H1347       H  0.72611832  0.49265545  0.39962495     0.12700
H1348       H  0.79264539  0.49437905  0.09806301     0.12700
H1349       H  0.72474890  0.49041197  0.09641709     0.12700
H1350       H  0.78564316  0.50700350  0.25026979     0.26000
H1351       H  0.72798795  0.50197963  0.24886302     0.26000
C1352       C  0.65019298  0.97042425  0.13673353    -0.26500
C1353       C  0.66460959  0.50985825  0.13989465    -0.14600
C1354       C  0.65467969  0.53678046  0.11130778     0.36100
C1355       C  0.62841135  0.53325748  0.08151070    -0.25900
C1356       C  0.61079225  0.50367438  0.07988359    -0.15200
C1357       C  0.62397225  0.96891688  0.10611843     0.37200
N1358       N  0.60779884  0.93787997  0.10192869    -0.89400
H1359       H  0.65787814  0.94809011  0.15640810     0.18300
H1360       H  0.62063231  0.55475321  0.06068182     0.18300
N1361       N  0.66976621  0.56864007  0.11294416    -0.88500
H1362       H  0.59816371  0.93338183  0.13069636     0.35600
H1363       H  0.62740506  0.91672819  0.09486057     0.40700
H1364       H  0.69683578  0.56247072  0.10842415     0.40400
H1365       H  0.66578275  0.58023544  0.14224253     0.35200
C1366       C  0.65421211  0.54339823  0.38007190    -0.26500
C1367       C  0.66504274  0.51386221  0.35469652    -0.14600
C1368       C  0.65201004  0.97731119  0.36169419     0.36100
C1369       C  0.62516307  0.97754240  0.39007005    -0.25900
C1370       C  0.61380525  0.00739197  0.41515702    -0.15200
C1371       C  0.62814552  0.54301700  0.40978929     0.37200
N1372       N  0.61733130  0.57388233  0.43495769    -0.89400
H1373       H  0.66595214  0.56696968  0.37632402     0.18300
H1374       H  0.61236270  0.95439476  0.39144818     0.18300
N1375       N  0.66225102  0.94604157  0.33722915    -0.88500
H1376       H  0.63084413  0.59431198  0.42717735     0.35600
H1377       H  0.62469988  0.56761436  0.46538847     0.40700
H1378       H  0.68920612  0.93773601  0.34220663     0.40400
H1379       H  0.65791932  0.95205593  0.30618094     0.35200
C1380       C  0.86047026  0.53863013  0.13007852    -0.26500
C1381       C  0.84644275  0.51099254  0.14760151    -0.14600
C1382       C  0.86012231  0.47584022  0.13710654     0.36100
C1383       C  0.88680677  0.46893876  0.10813105    -0.25900
C1384       C  0.90109893  0.49642358  0.09079818    -0.15200
C1385       C  0.88821342  0.53164972  0.10217025     0.37200
N1386       N  0.90308918  0.56004824  0.08510822    -0.89400
H1387       H  0.84982232  0.56556824  0.13837575     0.18300
H1388       H  0.90243141  0.93625391  0.09783510     0.18300
N1389       N  0.84655997  0.44735881  0.15582754    -0.88500
H1390       H  0.89082215  0.58428460  0.09690215     0.35600
H1391       H  0.89770494  0.55997256  0.05340808     0.40700
H1392       H  0.85820484  0.93987724  0.18484868     0.40400
H1393       H  0.86674522  0.91437272  0.14259047     0.35200
C1394       C  0.85021401  0.53802662  0.38912349    -0.26500
C1395       C  0.84784576  0.51520842  0.35508288    -0.14600
C1396       C  0.87895054  0.98046243  0.34838545     0.36100
C1397       C  0.90828745  0.97799402  0.37519829    -0.25900
C1398       C  0.90808621  0.50597896  0.40795183    -0.15200
C1399       C  0.87974398  0.53343424  0.41595060     0.37200
N1400       N  0.88033055  0.55734809  0.45041368    -0.89400
H1401       H  0.82905455  0.55958601  0.39471767     0.18300
H1402       H  0.92956323  0.95625867  0.37106430     0.18300
N1403       N  0.87726468  0.95459708  0.31587429    -0.88500
H1404       H  0.90318202  0.56889165  0.44938298     0.35600
H1405       H  0.88088072  0.54318395  0.47747395     0.40700
H1406       H  0.85617143  0.94134154  0.32174453     0.40400
H1407       H  0.89996619  0.93571753  0.31618558     0.35200
C1408       C  0.96759184  0.62280174  0.08909712    -0.26500
C1409       C  0.49548634  0.59522265  0.09942642    -0.14600
C1410       C  0.52020407  0.59999989  0.13132515     0.36100
C1411       C  0.51779690  0.63236461  0.15230800    -0.25900
C1412       C  0.49121541  0.66040968  0.14262728    -0.15200
C1413       C  0.96373441  0.65526792  0.11037185     0.37200
N1414       N  0.93419482  0.68140420  0.10041200    -0.89400
H1415       H  0.94876692  0.61888912  0.06463035     0.18300
H1416       H  0.53622544  0.63536951  0.17753239     0.18300
N1417       N  0.54848349  0.57296603  0.14268363    -0.88500
H1418       H  0.94362766  0.70413096  0.09166664     0.35600
H1419       H  0.91934518  0.68741433  0.12686936     0.40700
H1420       H  0.56370985  0.56564802  0.11684661     0.40400
H1421       H  0.53797423  0.55127992  0.15280130     0.35200
C1422       C  0.96773811  0.64895930  0.37551333    -0.26500
C1423       C  0.48370956  0.65152834  0.34422473    -0.14600
C1424       C  0.50846367  0.62166913  0.33439488     0.36100
C1425       C  0.51035502  0.59127152  0.35757438    -0.25900
C1426       C  0.99292317  0.58847268  0.39106428    -0.15200
C1427       C  0.96821815  0.61898558  0.39925381     0.37200
N1428       N  0.94358215  0.61977941  0.43170143    -0.89400
H1429       H  0.94844857  0.67207315  0.38161320     0.18300
H1430       H  0.53032713  0.56897608  0.35041870     0.18300
N1431       N  0.53227311  0.62249906  0.30135012    -0.88500
H1432       H  0.91816989  0.62560949  0.41889682     0.35600
H1433       H  0.94746520  0.64023408  0.45233979     0.40700
H1434       H  0.52858122  0.60236274  0.28017948     0.40400
H1435       H  0.55800662  0.61714917  0.31333542     0.35200
C1436       C  0.97867747  0.85049165  0.12245575    -0.26500
C1437       C  0.50665848  0.84127470  0.15572870    -0.14600
C1438       C  0.53332710  0.86257070  0.16188329     0.36100
C1439       C  0.53263952  0.89272922  0.13853796    -0.25900
C1440       C  0.50759753  0.90103354  0.10672440    -0.15200
C1441       C  0.98190648  0.87857225  0.09681856     0.37200
N1442       N  0.95983558  0.88392734  0.06062905    -0.89400
H1443       H  0.95875371  0.83403732  0.11508452     0.18300
H1444       H  0.55175270  0.90990357  0.14560131     0.18300
N1445       N  0.56178053  0.85387642  0.19103552    -0.88500
H1446       H  0.93361905  0.88587596  0.06932326     0.35600
H1447       H  0.96534656  0.86153522  0.04155827     0.40700
H1448       H  0.57434214  0.82839050  0.18409549     0.40400
H1449       H  0.55189502  0.85427427  0.22064790     0.35200
C1450       C  0.52535973  0.86752455  0.41338352    -0.26500
C1451       C  0.49343236  0.88635325  0.42762951    -0.14600
C1452       C  0.96980221  0.86874822  0.42087519     0.36100
C1453       C  0.96990364  0.84105000  0.39195228    -0.25900
C1454       C  0.49365515  0.83172909  0.36799704    -0.15200
C1455       C  0.52575816  0.84049102  0.38348057     0.37200
N1456       N  0.55854136  0.82219198  0.36830934    -0.89400
H1457       H  0.55017195  0.87486387  0.42429506     0.18300
H1458       H  0.94621034  0.82928490  0.38688315     0.18300
N1459       N  0.93784321  0.88000451  0.44241585    -0.88500
H1460       H  0.57983196  0.83145107  0.38332173     0.35600
H1461       H  0.55984128  0.82811404  0.33722890     0.40700
H1462       H  0.92775343  0.90574969  0.43424421     0.40400
H1463       H  0.94333207  0.87909129  0.47404922     0.35200
O1464       O  0.96747818  0.48342165  0.91865890    -0.80300
O1465       O  0.01414931  0.53112080  0.58714117    -0.80300
O1466       O  0.93234583  0.95994032  0.53315937    -0.80300
O1467       O  0.48996807  0.56464226  0.95497825    -0.80300
O1468       O  0.95606493  0.50131153  0.56511815    -0.80400
O1469       O  0.01387503  0.52798775  0.90623798    -0.80300
O1470       O  0.48924590  0.56440151  0.53872687    -0.80300
O1471       O  0.94095119  0.00576094  0.97064320    -0.80300
C1472       C  0.93922584  0.49964291  0.93435105     1.09400
C1473       C  0.99881306  0.56055004  0.57486261     1.09300
C1474       C  0.92907635  0.48503357  0.56003463     1.09400
C1475       C  0.99676879  0.55776413  0.91694724     1.09300
O1476       O  0.57183459  0.98148190  0.94714679    -0.80300
O1477       O  0.51512609  0.96010360  0.60191475    -0.80400
O1478       O  0.97203937  0.93331848  0.96756191    -0.80300
O1479       O  0.56466774  0.53442195  0.53877073    -0.80300
O1480       O  0.56354645  0.97665830  0.54715814    -0.80400
O1481       O  0.52560194  0.93453685  0.95516301    -0.80300
O1482       O  0.56525919  0.53845574  0.95609593    -0.80300
O1483       O  0.00111692  0.93553739  0.54624530    -0.80300
Co1484     Co  0.02065349  0.98073420  0.93406197     1.51500
Co1485     Co  0.51148518  0.48743291  0.55213963     1.51700
Co1486     Co  0.97216260  0.97437961  0.50946765     1.51600
Co1487     Co  0.52549280  0.54853327  0.99673982     1.51500
O1488       O  0.00925077  0.50077092  0.99325818    -1.42200
C1489       C  0.58404807  0.00990715  0.94350782     1.09300
C1490       C  0.50700054  0.93303720  0.58300659     1.09400
C1491       C  0.49797915  0.92065166  0.95267692     1.09300
C1492       C  0.57943310  0.00320874  0.55112289     1.09300
N1493       N  0.49789165  0.79944133  0.75691481    -0.36800
N1494       N  0.48952815  0.74697346  0.81725673    -0.57300
N1495       N  0.48240320  0.69911616  0.75041205    -0.36800
N1496       N  0.48913974  0.75054906  0.68938594    -0.57300
C1497       C  0.49092634  0.81955851  0.79146232     0.26800
C1498       C  0.49237494  0.82109220  0.72440841     0.26800
C1499       C  0.47237031  0.68167616  0.78237835     0.26800
C1500       C  0.47083523  0.68391733  0.71596568     0.26800
C1501       C  0.49967236  0.77197990  0.84252495     0.35400
C1502       C  0.49448831  0.71687248  0.83844333     0.35400
C1503       C  0.50107399  0.77593953  0.66821749     0.35400
C1504       C  0.49329060  0.72105077  0.66525573     0.35400
C1505       C  0.48076464  0.85437812  0.78078481    -0.22100
C1506       C  0.48146142  0.85532282  0.73848431    -0.22100
C1507       C  0.45324803  0.65582349  0.76832382    -0.22100
C1508       C  0.45215203  0.65732439  0.72615521    -0.22100
C1509       C  0.51058992  0.75794250  0.88044599    -0.23100
C1510       C  0.50759232  0.72269396  0.87769530    -0.23100
C1511       C  0.51221067  0.76271801  0.62984664    -0.23100
C1512       C  0.50743955  0.72778159  0.62806565    -0.23100
C1513       C  0.49636268  0.80766782  0.83237262    -0.18500
C1514       C  0.50015241  0.81114725  0.68288470    -0.18500
C1515       C  0.48275092  0.68891595  0.67639025    -0.18500
C1516       C  0.48491324  0.68512668  0.82292809    -0.18500
H1517       H  0.47416042  0.87688252  0.80137067     0.14400
H1518       H  0.47554360  0.87871249  0.72022085     0.14400
H1519       H  0.44279016  0.63676949  0.78647044     0.14400
H1520       H  0.44086379  0.63947048  0.70525571     0.14400
H1521       H  0.51955747  0.77169103  0.90722873     0.12700
H1522       H  0.51357862  0.70378640  0.90192625     0.12700
H1523       H  0.52269389  0.77673376  0.60576095     0.12700
H1524       H  0.51330627  0.70959528  0.60230501     0.13000
H1525       H  0.51007013  0.77334386  0.75588871     0.26000
H1526       H  0.50168652  0.71542439  0.75169609     0.26000
N1527       N  0.80568729  0.51166938  0.74945470    -0.36800
N1528       N  0.75407312  0.51142610  0.81312581    -0.57300
N1529       N  0.70074081  0.50506318  0.74906741    -0.36800
N1530       N  0.75253683  0.50888957  0.68578642    -0.57300
C1531       C  0.82424502  0.52008507  0.78320555     0.26800
C1532       C  0.82365178  0.51860956  0.71610228     0.26800
C1533       C  0.68021951  0.51096222  0.78252433     0.26800
C1534       C  0.67934512  0.51006414  0.71529940     0.26800
C1535       C  0.78367223  0.50679077  0.83699682     0.35400
C1536       C  0.72779879  0.50426243  0.83676999     0.35400
C1537       C  0.78125137  0.50351343  0.66200323     0.35400
C1538       C  0.72551161  0.50089139  0.66189355     0.35400
C1539       C  0.85419974  0.53280209  0.77122744    -0.22100
C1540       C  0.85398272  0.53162350  0.72892680    -0.22100
C1541       C  0.64520805  0.51911896  0.76984950    -0.22100
C1542       C  0.64466241  0.51861598  0.72742542    -0.22100
C1543       C  0.77611367  0.49700757  0.87611934    -0.23100
C1544       C  0.74061157  0.49567803  0.87606897    -0.23100
C1545       C  0.77220515  0.49280956  0.62258559    -0.23100
C1546       C  0.73692757  0.49091604  0.62260847    -0.23100
C1547       C  0.81709824  0.51266993  0.82427633    -0.18500
C1548       C  0.81515019  0.50985706  0.67487052    -0.18500
C1549       C  0.69012734  0.50519475  0.67390770    -0.18500
C1550       C  0.69207396  0.50719452  0.82406882    -0.18500
H1551       H  0.87475147  0.54093337  0.79097926     0.14400
H1552       H  0.87445407  0.53870823  0.71007548     0.14400
H1553       H  0.62238191  0.52457883  0.78914726     0.14400
H1554       H  0.62134086  0.52363495  0.70775929     0.14400
H1555       H  0.79417743  0.49161190  0.90207705     0.12700
H1556       H  0.72592897  0.48905239  0.90196166     0.12700
H1557       H  0.78905250  0.48735060  0.59630675     0.12700
H1558       H  0.72133045  0.48362726  0.59646508     0.12700
H1559       H  0.78521647  0.49691762  0.74932676     0.26000
H1560       H  0.72726527  0.49458641  0.74922815     0.26000
C1561       C  0.64769330  0.97789002  0.63650921    -0.26500
C1562       C  0.66291422  0.50457080  0.64084806    -0.14600
C1563       C  0.65351483  0.53326601  0.61454964     0.36100
C1564       C  0.62778387  0.53156267  0.58371294    -0.25900
C1565       C  0.61087162  0.50172868  0.57845623    -0.15200
C1566       C  0.62127632  0.97476657  0.60661604     0.37200
N1567       N  0.60310776  0.94499950  0.60729645    -0.89400
H1568       H  0.65458406  0.95723076  0.65865526     0.18300
H1569       H  0.62010486  0.55435201  0.56476121     0.18300
N1570       N  0.66897765  0.56479338  0.61927282    -0.88500
H1571       H  0.59218509  0.94475078  0.63637021     0.35600
H1572       H  0.62161051  0.92222469  0.60383951     0.40700
H1573       H  0.69609331  0.55856153  0.61505678     0.40400
H1574       H  0.66476342  0.57470914  0.64929042     0.35200
C1575       C  0.65399236  0.53833255  0.87858593    -0.26500
C1576       C  0.66551799  0.50713013  0.85641464    -0.14600
C1577       C  0.65258033  0.98041299  0.86284471     0.36100
C1578       C  0.62796628  0.97990990  0.89370868    -0.25900
C1579       C  0.61452683  0.01069919  0.91615109    -0.15200
C1580       C  0.62846425  0.53951003  0.90908219     0.37200
N1581       N  0.61686451  0.57195785  0.93108932    -0.89400
H1582       H  0.66477179  0.56190913  0.87170818     0.18300
H1583       H  0.61857211  0.95531930  0.89923351     0.18300
N1584       N  0.66497701  0.94833154  0.84081425    -0.88500
H1585       H  0.62955407  0.59213232  0.92065373     0.35600
H1586       H  0.62463535  0.56828388  0.96194283     0.40700
H1587       H  0.69236770  0.94297302  0.84456524     0.40400
H1588       H  0.65895045  0.95206159  0.80953571     0.35200
C1589       C  0.85801845  0.53289636  0.62949425    -0.26500
C1590       C  0.84377220  0.50424093  0.64432884    -0.14600
C1591       C  0.85649786  0.46990670  0.62982798     0.36100
C1592       C  0.88299787  0.46488177  0.60059303    -0.25900
C1593       C  0.89852855  0.49310806  0.58716568    -0.15200
C1594       C  0.88585005  0.52759890  0.60151766     0.37200
N1595       N  0.90104898  0.55695709  0.58750970    -0.89400
H1596       H  0.84773680  0.55928262  0.64029012     0.18300
H1597       H  0.89851330  0.93617599  0.59555010     0.18300
N1598       N  0.84228756  0.44028605  0.64488582    -0.88500
H1599       H  0.88882992  0.58044582  0.60119144     0.35600
H1600       H  0.89584545  0.55895454  0.55585355     0.40700
H1601       H  0.85305053  0.93920199  0.68192297     0.40400
H1602       H  0.85999141  0.91549119  0.63805131     0.35200
C1603       C  0.84815083  0.53296157  0.88742112    -0.26500
C1604       C  0.84714496  0.50873266  0.85447692    -0.14600
C1605       C  0.87454866  0.97864215  0.85086149     0.36100
C1606       C  0.90484401  0.97626215  0.87623939    -0.25900
C1607       C  0.90657560  0.50379075  0.90831188    -0.15200
C1608       C  0.87724516  0.53040826  0.91482641     0.37200
N1609       N  0.87637683  0.55543802  0.94832811    -0.89400
H1610       H  0.82623792  0.55400494  0.89171901     0.18300
H1611       H  0.92571250  0.95419272  0.87185152     0.18300
N1612       N  0.87099317  0.95185535  0.81996463    -0.88500
H1613       H  0.89854863  0.56799641  0.94701359     0.35600
H1614       H  0.87740010  0.54195209  0.97592833     0.40700
H1615       H  0.84947158  0.93983733  0.82762048     0.40400
H1616       H  0.89306432  0.93221021  0.82045581     0.35200
C1617       C  0.97087958  0.62212325  0.58839328    -0.26500
C1618       C  0.49354049  0.59244780  0.60378860    -0.14600
C1619       C  0.51533468  0.59613448  0.63892307     0.36100
C1620       C  0.51220620  0.62844781  0.66034693    -0.25900
C1621       C  0.48733129  0.65738393  0.64838198    -0.15200
C1622       C  0.96875538  0.65503269  0.60846064     0.37200
N1623       N  0.94105984  0.68254498  0.59609086    -0.89400
H1624       H  0.95219676  0.61893841  0.56351475     0.18300
H1625       H  0.52897866  0.63088494  0.68730512     0.18300
N1626       N  0.54121871  0.56798828  0.65336119    -0.88500
H1627       H  0.94548405  0.68843877  0.56562554     0.35600
H1628       H  0.94169692  0.70568120  0.61339476     0.40700
H1629       H  0.55914971  0.56023709  0.63000478     0.40400
H1630       H  0.52855174  0.54682329  0.66061185     0.35200
C1631       C  0.96354641  0.64730506  0.87264942    -0.26500
C1632       C  0.48926197  0.65346598  0.84839522    -0.14600
C1633       C  0.51645538  0.62526495  0.84023204     0.36100
C1634       C  0.51772594  0.59370477  0.86139673    -0.25900
C1635       C  0.98988708  0.58704414  0.88776470    -0.15200
C1636       C  0.96440507  0.61696505  0.89585564     0.37200
N1637       N  0.93937705  0.61674377  0.92768479    -0.89400
H1638       H  0.94408936  0.67019490  0.87914465     0.18300
H1639       H  0.53920906  0.57240574  0.85606892     0.18300
N1640       N  0.54258791  0.62897237  0.81044818    -0.88500
H1641       H  0.91412163  0.62206663  0.91433191     0.35600
H1642       H  0.94236757  0.63717150  0.94873400     0.40700
H1643       H  0.56074840  0.60584079  0.80794689     0.40400
H1644       H  0.55664506  0.64865003  0.82146816     0.35200
C1645       C  0.98652750  0.84759241  0.62168819    -0.26500
C1646       C  0.50522285  0.83947880  0.65377120    -0.14600
C1647       C  0.53246939  0.86018053  0.65998850     0.36100
C1648       C  0.53292002  0.89000349  0.63621767    -0.25900
C1649       C  0.50771434  0.89921004  0.60476881    -0.15200
C1650       C  0.98748477  0.87691263  0.59714654     0.37200
N1651       N  0.96340442  0.88302367  0.56280472    -0.89400
H1652       H  0.96701078  0.83059963  0.61466155     0.18300
H1653       H  0.55311641  0.90618199  0.64261507     0.18300
N1654       N  0.56034228  0.85128378  0.68982058    -0.88500
H1655       H  0.93781795  0.88446502  0.57355831     0.35600
H1656       H  0.96810431  0.86120717  0.54273010     0.40700
H1657       H  0.57231278  0.82543098  0.68373910     0.40400
H1658       H  0.54995176  0.85263459  0.71924571     0.35200
C1659       C  0.52870933  0.87362229  0.90677460    -0.26500
C1660       C  0.49742889  0.88831030  0.92655941    -0.14600
C1661       C  0.96787224  0.86945878  0.91702279     0.36100
C1662       C  0.96847707  0.84218685  0.88747127    -0.25900
C1663       C  0.49751463  0.83401510  0.86622675    -0.15200
C1664       C  0.52884599  0.84693155  0.87659061     0.37200
N1665       N  0.56070783  0.83334540  0.85591594    -0.89400
H1666       H  0.55309782  0.88374212  0.91350151     0.18300
H1667       H  0.94410618  0.83279011  0.87857673     0.18300
N1668       N  0.93469091  0.88288440  0.93492400    -0.88500
H1669       H  0.57952618  0.82332825  0.87810257     0.35600
H1670       H  0.56976267  0.85427515  0.84180030     0.40700
H1671       H  0.92727863  0.90910692  0.92677429     0.40400
H1672       H  0.93737323  0.88123566  0.96693226     0.35200
loop_ 
_geom_bond_atom_site_label_1 
_geom_bond_atom_site_label_2 
_geom_bond_distance 
_geom_bond_site_symmetry_2 
_ccdc_geom_bond_type 
O1            C9   1.278   1_565  A
O1         Co439   2.014       .  S
O2           C10   1.265       .  A
O2         Co858   2.028   1_545  S
O3          C429   1.266       .  A
O3          Co23   1.889       .  S
O4          C848   1.256       .  A
O4          Co24   1.955   1_655  S
O5           C11   1.295   1_545  A
O5         Co858   2.104   1_545  S
O6           C12   1.274       .  A
O6         Co439   2.033   1_545  S
O7          C846   1.251       .  A
O7         Co233   1.963   1_654  S
O8          C427   1.268       .  A
O8         Co232   1.975       .  S
C9          O426   1.268       .  A
C9          C144   1.484       .  S
C10         O843   1.249       .  A
C10         C991   1.482       .  S
C11         O421   1.267       .  A
C11         C130   1.475       .  S
C12         O840   1.254       .  A
C12         C172   1.480       .  S
O13          C26   1.264       .  A
O13        Co857   1.968       .  S
O14          C27   1.270       .  A
O14        Co440   1.906       .  S
O15         C864   1.261       .  A
O15        Co232   1.995       .  S
O16         C447   1.282       .  A
O16        Co233   2.034   1_554  S
O17          C29   1.269       .  A
O17        Co440   1.965       .  S
O18          C28   1.259   1_455  A
O18        Co857   1.972       .  S
O19         C444   1.273       .  A
O19         Co24   2.019       .  S
O20         C863   1.297       .  A
O20         Co23   2.104       .  S
Co21        O419   2.012       .  S
Co21        O424   2.029       .  S
Co21        O849   1.965       .  S
Co21        O854   1.976       .  S
Co21        O443   2.027       .  S
Co22        O838   2.020   1_565  S
Co22        O841   2.109   1_465  S
Co22        O432   1.899       .  S
Co22        O435   1.971       .  S
Co22       O1070   2.013   1_554  S
Co23        O217   1.973   1_554  S
Co23        O224   2.011   1_554  S
Co23        O652   2.004   1_554  S
Co24        O216   1.961   1_455  S
Co24        O225   2.040       .  S
Co24        O861   2.015       .  S
O25        Co439   2.029       .  S
O25       Co1067   2.014       .  S
O25        Co650   2.006       .  S
O25        Co860   2.011   1_565  S
C26         O437   1.274       .  A
C26         C116   1.496       .  S
C27         O856   1.294   1_455  A
C27         C186   1.490       .  S
C28         O851   1.266       .  A
C28         C197   1.494       .  S
C29         O434   1.281       .  A
C29         C520   1.492       .  S
N30          C35   1.356   1_455  A
N30          C34   1.357   1_455  A
N30          H62   1.040       .  S
N31          C38   1.347   1_655  A
N31          C39   1.350   1_655  A
N32          C37   1.348       .  A
N32          C36   1.350       .  A
N32          H63   1.040   1_655  S
N33          C40   1.352   1_655  A
N33          C41   1.353       .  A
C34          C42   1.387       .  A
C34          C50   1.420   1_655  A
C35          C51   1.422   1_655  A
C35          C43   1.388       .  A
C36          C44   1.386       .  A
C36          C53   1.407       .  A
C37          C52   1.408       .  A
C37          C45   1.388       .  A
C38          C50   1.408       .  A
C38          C46   1.387       .  A
C39          C53   1.409   1_455  A
C39          C47   1.385       .  A
C40          C48   1.388       .  A
C40          C51   1.419       .  A
C41          C49   1.384   1_655  A
C41          C52   1.415       .  A
C42          C43   1.377       .  A
C42          H54   1.082       .  S
C43          H55   1.082       .  S
C44          C45   1.372       .  A
C44          H56   1.083       .  S
C45          H57   1.083       .  S
C46          C47   1.377       .  A
C46          H58   1.082       .  S
C47          H59   1.082       .  S
C48          C49   1.381       .  A
C48          H60   1.082       .  S
C49          H61   1.082       .  S
C50         C200   1.487       .  S
C51         C183   1.502       .  S
C52         C158   1.487       .  S
C53         C169   1.483       .  S
N64          C69   1.354       .  A
N64          C68   1.351       .  A
N64          H96   1.038       .  S
N65          C72   1.352       .  A
N65          C73   1.351       .  A
N66          C71   1.356       .  A
N66          C70   1.355       .  A
N66          H97   1.037       .  S
N67          C74   1.352       .  A
N67          C75   1.351       .  A
C68          C76   1.386       .  A
C68          C84   1.414       .  A
C69          C85   1.417       .  A
C69          C77   1.388       .  A
C70          C78   1.387       .  A
C70          C87   1.418       .  A
C71          C86   1.420       .  A
C71          C79   1.388       .  A
C72          C84   1.413       .  A
C72          C80   1.386       .  A
C73          C87   1.412       .  A
C73          C81   1.386       .  A
C74          C82   1.387   1_545  A
C74          C85   1.415       .  A
C75          C83   1.386   1_545  A
C75          C86   1.413       .  A
C76          C77   1.375       .  A
C76          H88   1.083       .  S
C77          H89   1.081       .  S
C78          C79   1.378       .  A
C78          H90   1.083       .  S
C79          H91   1.083       .  S
C80          C81   1.372       .  A
C80          H92   1.082       .  S
C81          H93   1.082       .  S
C82          C83   1.371       .  A
C82          H94   1.082       .  S
C83          H95   1.082       .  S
C84         C141   1.490       .  S
C85         C127   1.491       .  S
C86          C99   1.490       .  S
C87         C113   1.487       .  S
C98         C103   1.404       .  A
C98         C517   1.399       .  A
C98         H105   1.084       .  S
C99         C100   1.410       .  A
C99         C516   1.401   1_545  A
C100        C101   1.400       .  A
C100        N107   1.433       .  S
C101        C102   1.410       .  A
C101        H106   1.083       .  S
C102        C447   1.496       .  S
C102        C521   1.417   1_545  A
C103        C520   1.417       .  A
C103        N104   1.431       .  S
N104        H108   1.044       .  S
N104        H109   1.045       .  S
N107        H110   1.045       .  S
N107        H111   1.046       .  S
C112        C113   1.399       .  A
C112        C117   1.408       .  A
C112        H119   1.084       .  S
C113        C532   1.408   1_545  A
C114        C115   1.401       .  A
C114        C531   1.409       .  A
C114        N121   1.432       .  S
C115        C116   1.410       .  A
C115        H120   1.083       .  S
C116        C535   1.418       .  A
C117        C534   1.422       .  A
C117        N118   1.438       .  S
N118        H122   1.046       .  S
N118        H123   1.046       .  S
N121        H124   1.045       .  S
N121        H125   1.045       .  S
C126        C127   1.404       .  A
C126        C131   1.408       .  A
C126        H133   1.083       .  S
C127        C128   1.411   1_545  A
C128        C129   1.403       .  A
C128        N135   1.438       .  S
C129        C130   1.402       .  A
C129        H552   1.084       .  S
C130        C131   1.411   1_565  A
C131        N132   1.438       .  S
N132        H136   1.046       .  S
N132        H137   1.045       .  S
H134        C547   1.083       .  S
N135        H556   1.046       .  S
N135        H557   1.046       .  S
H138        N553   1.046       .  S
H139        N553   1.046       .  S
C140        C141   1.405       .  A
C140        C145   1.404       .  A
C140        H147   1.084       .  S
C141        C560   1.409   1_545  A
C142        C143   1.398       .  A
C142        C559   1.409       .  A
C142        N149   1.439       .  S
C143        C562   1.407       .  A
C143        H148   1.084       .  S
C144        C145   1.418       .  A
C144        C561   1.405   1_545  A
C145        N146   1.432       .  S
N146        H150   1.044       .  S
N146        H151   1.045       .  S
N149        H152   1.045       .  S
N149        H153   1.046       .  S
C154        C159   1.399       .  A
C154        C991   1.409       .  A
C154        H161   1.084       .  S
C155        C846   1.484       .  S
C155        C156   1.414   1_655  A
C155        C990   1.410       .  A
C156        C157   1.395       .  A
C156        N163   1.431       .  S
C157        C158   1.404   1_455  A
C157        H162   1.085       .  S
C158        C995   1.414       .  A
C159        C994   1.408       .  A
C159        N160   1.432       .  S
N160        H164   1.045       .  S
N160        H165   1.045       .  S
N163        H166   1.043       .  S
N163        H167   1.045       .  S
C168        C173   1.404       .  A
C168       C1005   1.399       .  A
C168        H175   1.084       .  S
C169        C170   1.410   1_655  A
C169       C1004   1.399       .  A
C170        C171   1.403       .  A
C170        N177   1.438       .  S
C171       C1008   1.405   1_455  A
C171        H176   1.084       .  S
C172        C173   1.416       .  A
C172       C1007   1.403       .  A
C173        N174   1.432       .  S
N174        H178   1.046       .  S
N174        H179   1.046       .  S
N177        H180   1.046       .  S
N177        H181   1.046       .  S
C182        C187   1.410       .  A
C182       C1019   1.404       .  A
C182        H189   1.084       .  S
C183        C184   1.418       .  A
C183       C1018   1.405   1_455  A
C184        C185   1.403       .  A
C184        N191   1.434       .  S
C185        C186   1.403       .  A
C185        H190   1.080       .  S
C186       C1023   1.414   1_455  A
C187       C1022   1.416       .  A
C187        N188   1.438       .  S
N188        H192   1.046       .  S
N188        H193   1.045       .  S
N191        H194   1.046       .  S
N191        H195   1.042       .  S
C196        C197   1.411   1_455  A
C196        C201   1.404       .  A
C196        H203   1.083       .  S
C197       C1034   1.421       .  A
C198        C199   1.397       .  A
C198       C1033   1.423       .  A
C198        N205   1.433       .  S
C199       C1036   1.398       .  A
C199        H204   1.084       .  S
C200        C201   1.405       .  A
C200       C1035   1.402   1_455  A
C201        N202   1.438       .  S
N202        H206   1.046       .  S
N202        H207   1.045       .  S
N205        H208   1.045       .  S
N205        H209   1.045       .  S
O210        C218   1.277   1_565  A
O210       Co648   2.018       .  S
O211        C219   1.267       .  A
O211      Co1067   2.023   1_545  S
O212        C638   1.264       .  A
O212       Co232   1.890       .  S
O213       C1057   1.254       .  A
O213       Co233   1.947   1_655  S
O214        C220   1.294   1_545  A
O214      Co1067   2.106   1_545  S
O215        C221   1.275       .  A
O215       Co648   2.033   1_545  S
O216       C1055   1.251       .  A
O217        C636   1.267       .  A
C218        O635   1.267       .  A
C218        C353   1.482       .  S
C219       O1052   1.253       .  A
C219       C1200   1.481       .  S
C220        O630   1.264       .  A
C220        C339   1.470       .  S
C221       O1049   1.256       .  A
C221        C381   1.483       .  S
O222        C235   1.264       .  A
O222      Co1066   1.967       .  S
O223        C236   1.267       .  A
O223       Co649   1.903       .  S
O224       C1073   1.264       .  A
O225        C656   1.282       .  A
O226        C238   1.270       .  A
O226       Co649   1.966       .  S
O227        C237   1.261   1_455  A
O227      Co1066   1.975       .  S
O228        C653   1.273       .  A
O228       Co233   2.023       .  S
O229       C1072   1.294       .  A
O229       Co232   2.100       .  S
Co230       O628   2.015       .  S
Co230       O633   2.040       .  S
Co230      O1058   1.956       .  S
Co230      O1063   1.972       .  S
Co230       O652   2.031       .  S
Co231      O1047   2.026   1_565  S
Co231      O1050   2.106   1_465  S
Co231       O641   1.902       .  S
Co231       O644   1.967       .  S
Co231       O861   2.010   1_565  S
Co232       O443   2.003       .  S
Co233      O1070   2.011   1_545  S
O234       Co648   2.029   1_545  S
O234       Co858   2.016   1_546  S
O234       Co441   2.007   1_546  S
O234      Co1069   2.008       .  S
C235        O646   1.275       .  A
C235        C325   1.496       .  S
C236       O1065   1.296   1_455  A
C236        C395   1.487       .  S
C237       O1060   1.264       .  A
C237        C406   1.491       .  S
C238        O643   1.281       .  A
C238        C729   1.489       .  S
N239        C244   1.356       .  A
N239        C243   1.355       .  A
N239        H271   1.040   1_655  S
N240        C247   1.348       .  A
N240        C248   1.351       .  A
N241        C246   1.348       .  A
N241        C245   1.349       .  A
N241        H272   1.040       .  S
N242        C249   1.351   1_655  A
N242        C250   1.353       .  A
C243        C251   1.387       .  A
C243        C259   1.418       .  A
C244        C260   1.420   1_655  A
C244        C252   1.388       .  A
C245        C253   1.386       .  A
C245        C262   1.406       .  A
C246        C261   1.407       .  A
C246        C254   1.388       .  A
C247        C259   1.410       .  A
C247        C255   1.386   1_655  A
C248        C262   1.413       .  A
C248        C256   1.386   1_655  A
C249        C257   1.387       .  A
C249        C260   1.417       .  A
C250        C258   1.384   1_655  A
C250        C261   1.414       .  A
C251        C252   1.377       .  A
C251        H263   1.082       .  S
C252        H264   1.082       .  S
C253        C254   1.373       .  A
C253        H265   1.083       .  S
C254        H266   1.083       .  S
C255        C256   1.378       .  A
C255        H267   1.082       .  S
C256        H268   1.082       .  S
C257        C258   1.380       .  A
C257        H269   1.082       .  S
C258        H270   1.082       .  S
C259        C409   1.486       .  S
C260        C392   1.497       .  S
C261        C367   1.486       .  S
C262        C378   1.488       .  S
N273        C278   1.352       .  A
N273        C277   1.351       .  A
N273        H305   1.038       .  S
N274        C281   1.353       .  A
N274        C282   1.351       .  A
N275        C280   1.357       .  A
N275        C279   1.354       .  A
N275        H306   1.037       .  S
N276        C283   1.351       .  A
N276        C284   1.350       .  A
C277        C285   1.386       .  A
C277        C293   1.412       .  A
C278        C294   1.414       .  A
C278        C286   1.388       .  A
C279        C287   1.387       .  A
C279        C296   1.420       .  A
C280        C295   1.421       .  A
C280        C288   1.387       .  A
C281        C293   1.412       .  A
C281        C289   1.385       .  A
C282        C296   1.414       .  A
C282        C290   1.387       .  A
C283        C291   1.387   1_545  A
C283        C294   1.414       .  A
C284        C292   1.385   1_545  A
C284        C295   1.412       .  A
C285        C286   1.374       .  A
C285        H297   1.083       .  S
C286        H298   1.081       .  S
C287        C288   1.379       .  A
C287        H299   1.082       .  S
C288        H300   1.082       .  S
C289        C290   1.373       .  A
C289        H301   1.082       .  S
C290        H302   1.082       .  S
C291        C292   1.373       .  A
C291        H303   1.082       .  S
C292        H304   1.082       .  S
C293        C350   1.488       .  S
C294        C336   1.485       .  S
C295        C308   1.493       .  S
C296        C322   1.488       .  S
C307        C726   1.399       .  A
C307        C312   1.403       .  A
C307        H314   1.084       .  S
C308        C725   1.400   1_545  A
C308        C309   1.411       .  A
C309        C310   1.403       .  A
C309        N316   1.432       .  S
C310        C311   1.410       .  A
C310        H315   1.083       .  S
C311        C656   1.498       .  S
C311        C730   1.418   1_545  A
C312        C729   1.416       .  A
C312        N313   1.431       .  S
N313        H317   1.044       .  S
N313        H318   1.046       .  S
N316        H319   1.045       .  S
N316        H320   1.045       .  S
C321        C322   1.402       .  A
C321        C326   1.408       .  A
C321        H328   1.084       .  S
C322        C741   1.409   1_545  A
C323        C740   1.410       .  A
C323        C324   1.401       .  A
C323        N330   1.432       .  S
C324        C325   1.411       .  A
C324        H329   1.083       .  S
C325        C744   1.419       .  A
C326        C743   1.417       .  A
C326        N327   1.437       .  S
N327        H331   1.046       .  S
N327        H332   1.046       .  S
N330        H333   1.046       .  S
N330        H334   1.045       .  S
C335        C336   1.403       .  A
C335        C340   1.405       .  A
C335        H342   1.084       .  S
C336        C337   1.409   1_545  A
C337        C338   1.402       .  A
C337        N344   1.438       .  S
C338        C339   1.402       .  A
C338        H761   1.084       .  S
C339        C340   1.410   1_565  A
C340        N341   1.438       .  S
N341        H345   1.046       .  S
N341        H346   1.045       .  S
H343        C756   1.084       .  S
N344        H765   1.046       .  S
N344        H766   1.046       .  S
H347        N762   1.046       .  S
H348        N762   1.046       .  S
C349        C350   1.403       .  A
C349        C354   1.404       .  A
C349        H356   1.084       .  S
C350        C769   1.409   1_545  A
C351        C768   1.410       .  A
C351        C352   1.399       .  A
C351        N358   1.439       .  S
C352        C771   1.406       .  A
C352        H357   1.084       .  S
C353        C770   1.404   1_545  A
C353        C354   1.417       .  A
C354        N355   1.432       .  S
N355        H359   1.045       .  S
N355        H360   1.045       .  S
N358        H361   1.046       .  S
N358        H362   1.046       .  S
C363       C1200   1.409       .  A
C363        C368   1.402       .  A
C363        H370   1.084       .  S
C364       C1055   1.486       .  S
C364       C1199   1.411       .  A
C364        C365   1.415   1_655  A
C365        C366   1.396       .  A
C365        N372   1.432       .  S
C366        C367   1.404   1_455  A
C366        H371   1.085       .  S
C367       C1204   1.413       .  A
C368       C1203   1.413       .  A
C368        N369   1.438       .  S
N369        H373   1.046       .  S
N369        H374   1.043       .  S
N372        H375   1.044       .  S
N372        H376   1.045       .  S
C377       C1214   1.398       .  A
C377        C382   1.401       .  A
C377        H384   1.084       .  S
C378       C1213   1.397       .  A
C378        C379   1.411   1_655  A
C379        C380   1.403       .  A
C379        N386   1.433       .  S
C380       C1217   1.403   1_455  A
C380        H385   1.084       .  S
C381       C1216   1.405       .  A
C381        C382   1.417       .  A
C382        N383   1.432       .  S
N383        H387   1.046       .  S
N383        H388   1.046       .  S
N386        H389   1.046       .  S
N386        H390   1.046       .  S
C391       C1228   1.404       .  A
C391        C396   1.405       .  A
C391        H398   1.084       .  S
C392       C1227   1.403   1_455  A
C392        C393   1.417       .  A
C393        C394   1.404       .  A
C393        N400   1.433       .  S
C394        C395   1.405       .  A
C394        H399   1.081       .  S
C395       C1232   1.412   1_455  A
C396       C1231   1.413       .  A
C396        N397   1.432       .  S
N397        H401   1.045       .  S
N397        H402   1.046       .  S
N400        H403   1.046       .  S
N400        H404   1.043       .  S
C405        C406   1.409   1_455  A
C405        C410   1.404       .  A
C405        H412   1.083       .  S
C406       C1243   1.422       .  A
C407       C1242   1.423       .  A
C407        C408   1.402       .  A
C407        N414   1.432       .  S
C408       C1245   1.400       .  A
C408        H413   1.084       .  S
C409       C1244   1.400       .  A
C409        C410   1.406   1_655  A
C410        N411   1.438       .  S
N411        H415   1.046       .  S
N411        H416   1.045       .  S
N414        H417   1.045       .  S
N414        H418   1.045       .  S
O419        C427   1.277       .  A
O420        C428   1.263       .  A
O420      Co1276   2.017       .  S
O421       Co441   1.896       .  S
O422       C1266   1.256       .  A
O422       Co442   1.951   1_655  S
O423        C429   1.296       .  A
O423      Co1276   2.110       .  S
O424        C430   1.274       .  A
O425       C1264   1.253       .  A
O425       Co651   1.962   1_654  S
O426       Co650   1.974   1_545  S
C427        C562   1.484       .  S
C428       O1261   1.251       .  A
C428       C1409   1.481       .  S
C429        C548   1.472       .  S
C430       O1258   1.255       .  A
C430        C590   1.477       .  S
O431        C444   1.266   1_565  A
O431      Co1275   1.968       .  S
O432        C445   1.268       .  A
O433       C1282   1.262       .  A
O433       Co650   1.999       .  S
O434       Co651   2.030   1_554  S
O435        C447   1.270   1_565  A
O436        C446   1.263       .  A
O436      Co1275   1.980       .  S
O437       Co442   2.027       .  S
O438       C1281   1.295       .  A
O438       Co441   2.100       .  S
Co439      O1267   1.965       .  S
Co439      O1272   1.974       .  S
Co440      O1256   2.024       .  S
Co440      O1259   2.102   1_455  S
Co440      O1488   2.009   1_554  S
Co441       O635   1.973   1_564  S
Co441       O642   2.009   1_554  S
Co442       O634   1.959   1_455  S
Co442       O643   2.026       .  S
Co442      O1279   2.010       .  S
O443      Co1485   2.006       .  S
O443      Co1278   2.014       .  S
C444        C534   1.492       .  S
C445       O1274   1.295   1_455  A
C445        C604   1.483       .  S
C446       O1269   1.264   1_455  A
C446        C615   1.496       .  S
N448        C453   1.353       .  A
N448        C452   1.354       .  A
N448        H480   1.041   1_655  S
N449        C456   1.347   1_655  A
N449        C457   1.349       .  A
N450        C455   1.347       .  A
N450        C454   1.350       .  A
N450        H481   1.040   1_655  S
N451        C458   1.351       .  A
N451        C459   1.352       .  A
C452        C460   1.388       .  A
C452        C468   1.416       .  A
C453        C469   1.416       .  A
C453        C461   1.387       .  A
C454        C462   1.386       .  A
C454        C471   1.407       .  A
C455        C470   1.407       .  A
C455        C463   1.388       .  A
C456        C468   1.409   1_455  A
C456        C464   1.386       .  A
C457        C471   1.410       .  A
C457        C465   1.386   1_655  A
C458        C466   1.388   1_655  A
C458        C469   1.416       .  A
C459        C467   1.384   1_655  A
C459        C470   1.412       .  A
C460        C461   1.378       .  A
C460        H472   1.082       .  S
C461        H473   1.082       .  S
C462        C463   1.373       .  A
C462        H474   1.082       .  S
C463        H475   1.083       .  S
C464        C465   1.379       .  A
C464        H476   1.082       .  S
C465        H477   1.082       .  S
C466        C467   1.380       .  A
C466        H478   1.082       .  S
C467        H479   1.082       .  S
C468        C618   1.486       .  S
C469        C601   1.496   1_655  S
C470        C576   1.483       .  S
C471        C587   1.482       .  S
N482        C487   1.353       .  A
N482        C486   1.350       .  A
N482        H514   1.039       .  S
N483        C490   1.351       .  A
N483        C491   1.351       .  A
N484        C489   1.354       .  A
N484        C488   1.355       .  A
N484        H515   1.039       .  S
N485        C492   1.350       .  A
N485        C493   1.349       .  A
C486        C494   1.387       .  A
C486        C502   1.414       .  A
C487        C503   1.413       .  A
C487        C495   1.387       .  A
C488        C496   1.387       .  A
C488        C505   1.418       .  A
C489        C504   1.418       .  A
C489        C497   1.387       .  A
C490        C502   1.412       .  A
C490        C498   1.386       .  A
C491        C505   1.412       .  A
C491        C499   1.386       .  A
C492        C500   1.386       .  A
C492        C503   1.411       .  A
C493        C501   1.386       .  A
C493        C504   1.410       .  A
C494        C495   1.376       .  A
C494        H506   1.083       .  S
C495        H507   1.082       .  S
C496        C497   1.380       .  A
C496        H508   1.082       .  S
C497        H509   1.083       .  S
C498        C499   1.375       .  A
C498        H510   1.082       .  S
C499        H511   1.082       .  S
C500        C501   1.372       .  A
C500        H512   1.082       .  S
C501        H513   1.082       .  S
C502        C559   1.488       .  S
C503        C545   1.486       .  S
C504        C517   1.485       .  S
C505        C531   1.490       .  S
C516        C521   1.408       .  A
C516        H523   1.084       .  S
C517        C518   1.409       .  A
C518        C519   1.399       .  A
C518        N525   1.432       .  S
C519        C520   1.409       .  A
C519        H524   1.083       .  S
C521        N522   1.432       .  S
N522        H526   1.045       .  S
N522        H527   1.046       .  S
N525        H528   1.045       .  S
N525        H529   1.046       .  S
C530        C531   1.401       .  A
C530        C535   1.408       .  A
C530        H537   1.084       .  S
C532        C533   1.398       .  A
C532        N539   1.432       .  S
C533        C534   1.408   1_565  A
C533        H538   1.083       .  S
C535        N536   1.432       .  S
N536        H540   1.046       .  S
N536        H541   1.046       .  S
N539        H542   1.045       .  S
N539        H543   1.045       .  S
C544        C545   1.404       .  A
C544        C549   1.408       .  A
C544        H551   1.084       .  S
C545        C546   1.409       .  A
C546        C547   1.401       .  A
C546        N553   1.438       .  S
C547        C548   1.402       .  A
C548        C549   1.410       .  A
C549        N550   1.437       .  S
N550        H554   1.046       .  S
N550        H555   1.045       .  S
C558        C559   1.405       .  A
C558        C563   1.404       .  A
C558        H565   1.084       .  S
C560        C561   1.397       .  A
C560        N567   1.439       .  S
C561        H566   1.083       .  S
C562        C563   1.417       .  A
C563        N564   1.432       .  S
N564        H568   1.045       .  S
N564        H569   1.045       .  S
N567        H570   1.046       .  S
N567        H571   1.046       .  S
C572       C1409   1.409       .  A
C572        C577   1.402       .  A
C572        H579   1.084       .  S
C573       C1264   1.483       .  S
C573       C1408   1.411       .  A
C573        C574   1.415   1_655  A
C574        C575   1.396       .  A
C574        N581   1.432       .  S
C575        C576   1.404   1_455  A
C575        H580   1.085       .  S
C576       C1413   1.408       .  A
C577       C1412   1.412       .  A
C577        N578   1.438       .  S
N578        H582   1.046       .  S
N578        H583   1.043       .  S
N581        H584   1.044       .  S
N581        H585   1.045       .  S
C586       C1423   1.399       .  A
C586        C591   1.402       .  A
C586        H593   1.084       .  S
C587       C1422   1.398       .  A
C587        C588   1.408   1_655  A
C588        C589   1.402       .  A
C588        N595   1.433       .  S
C589       C1426   1.405   1_455  A
C589        H594   1.084       .  S
C590       C1425   1.402       .  A
C590        C591   1.416       .  A
C591        N592   1.433       .  S
N592        H596   1.046       .  S
N592        H597   1.046       .  S
N595        H598   1.046       .  S
N595        H599   1.046       .  S
C600       C1437   1.404       .  A
C600        C605   1.409       .  A
C600        H607   1.084       .  S
C601       C1436   1.403   1_455  A
C601        C602   1.419       .  A
C602        C603   1.402       .  A
C602        N609   1.433       .  S
C603        C604   1.403       .  A
C603        H608   1.083       .  S
C604       C1441   1.413   1_455  A
C605       C1440   1.416       .  A
C605        N606   1.437       .  S
N606        H610   1.046       .  S
N606        H611   1.045       .  S
N609        H612   1.046       .  S
N609        H613   1.042       .  S
C614        C615   1.410       .  A
C614        C619   1.406       .  A
C614        H621   1.083       .  S
C615       C1452   1.424   1_455  A
C616       C1451   1.422       .  A
C616        C617   1.398       .  A
C616        N623   1.433       .  S
C617       C1454   1.399       .  A
C617        H622   1.084       .  S
C618       C1453   1.399       .  A
C618        C619   1.407   1_655  A
C619        N620   1.438       .  S
N620        H624   1.046       .  S
N620        H625   1.045       .  S
N623        H626   1.044       .  S
N623        H627   1.045       .  S
O628        C636   1.277       .  A
O629        C637   1.264       .  A
O629      Co1485   2.019       .  S
O630       Co650   1.891       .  S
O631       C1475   1.256       .  A
O631       Co651   1.952   1_655  S
O632        C638   1.295       .  A
O632      Co1485   2.105       .  S
O633        C639   1.275       .  A
O634       C1473   1.251       .  A
C636        C771   1.485       .  S
C637       O1470   1.254       .  A
C637       C1618   1.486       .  S
C638        C757   1.469       .  S
C639       O1467   1.253       .  A
C639        C799   1.477       .  S
O640        C653   1.263   1_565  A
O640      Co1484   1.964       .  S
O641        C654   1.269       .  A
O642       C1491   1.265       .  A
O644        C656   1.269   1_565  A
O645        C655   1.261   1_455  A
O645      Co1484   1.979       .  S
O646       Co651   2.029       .  S
O647       C1490   1.295       .  A
O647       Co650   2.103       .  S
Co648      O1476   1.966       .  S
Co648      O1481   1.970       .  S
Co649      O1465   2.017       .  S
Co649      O1468   2.111   1_455  S
Co649      O1279   2.013       .  S
Co651      O1488   2.012       .  S
O652      Co1276   2.009   1_556  S
O652      Co1487   2.011       .  S
C653        C743   1.490       .  S
C654       O1483   1.296       .  A
C654        C813   1.487       .  S
C655       O1478   1.265       .  A
C655        C824   1.495       .  S
N657        C662   1.356   1_455  A
N657        C661   1.356   1_455  A
N657        H689   1.040       .  S
N658        C665   1.347   1_655  A
N658        C666   1.350       .  A
N659        C664   1.346       .  A
N659        C663   1.348       .  A
N659        H690   1.041   1_655  S
N660        C667   1.349   1_655  A
N660        C668   1.351       .  A
C661        C669   1.387       .  A
C661        C677   1.420       .  A
C662        C678   1.421   1_655  A
C662        C670   1.387       .  A
C663        C671   1.385       .  A
C663        C680   1.403       .  A
C664        C679   1.404       .  A
C664        C672   1.388       .  A
C665        C677   1.409   1_455  A
C665        C673   1.387       .  A
C666        C680   1.410       .  A
C666        C674   1.385   1_655  A
C667        C675   1.388       .  A
C667        C678   1.415       .  A
C668        C676   1.384   1_655  A
C668        C679   1.410       .  A
C669        C670   1.378       .  A
C669        H681   1.082       .  S
C670        H682   1.082       .  S
C671        C672   1.372       .  A
C671        H683   1.083       .  S
C672        H684   1.083       .  S
C673        C674   1.379       .  A
C673        H685   1.082       .  S
C674        H686   1.082       .  S
C675        C676   1.380       .  A
C675        H687   1.082       .  S
C676        H688   1.082       .  S
C677        C827   1.486       .  S
C678        C810   1.499       .  S
C679        C785   1.480       .  S
C680        C796   1.483       .  S
N691        C696   1.353       .  A
N691        C695   1.350       .  A
N691        H723   1.038       .  S
N692        C699   1.353       .  A
N692        C700   1.352       .  A
N693        C698   1.355       .  A
N693        C697   1.355       .  A
N693        H724   1.036       .  S
N694        C701   1.351       .  A
N694        C702   1.348       .  A
C695        C703   1.387       .  A
C695        C711   1.413       .  A
C696        C712   1.412       .  A
C696        C704   1.387       .  A
C697        C705   1.387       .  A
C697        C714   1.420       .  A
C698        C713   1.420       .  A
C698        C706   1.388       .  A
C699        C711   1.415       .  A
C699        C707   1.386       .  A
C700        C714   1.415       .  A
C700        C708   1.386       .  A
C701        C709   1.386       .  A
C701        C712   1.410       .  A
C702        C710   1.387       .  A
C702        C713   1.409       .  A
C703        C704   1.373       .  A
C703        H715   1.083       .  S
C704        H716   1.081       .  S
C705        C706   1.379       .  A
C705        H717   1.083       .  S
C706        H718   1.083       .  S
C707        C708   1.374       .  A
C707        H719   1.082       .  S
C708        H720   1.082       .  S
C709        C710   1.371       .  A
C709        H721   1.082       .  S
C710        H722   1.082       .  S
C711        C768   1.489       .  S
C712        C754   1.485       .  S
C713        C726   1.484       .  S
C714        C740   1.492       .  S
C725        C730   1.407       .  A
C725        H732   1.084       .  S
C726        C727   1.410       .  A
C727        C728   1.397       .  A
C727        N734   1.433       .  S
C728        C729   1.409       .  A
C728        H733   1.084       .  S
C730        N731   1.432       .  S
N731        H735   1.045       .  S
N731        H736   1.046       .  S
N734        H737   1.045       .  S
N734        H738   1.045       .  S
C739        C740   1.401       .  A
C739        C744   1.410       .  A
C739        H746   1.084       .  S
C741        C742   1.398       .  A
C741        N748   1.433       .  S
C742        C743   1.409   1_565  A
C742        H747   1.083       .  S
C744        N745   1.437       .  S
N745        H749   1.046       .  S
N745        H750   1.046       .  S
N748        H751   1.046       .  S
N748        H752   1.045       .  S
C753        C754   1.403       .  A
C753        C758   1.406       .  A
C753        H760   1.084       .  S
C754        C755   1.410       .  A
C755        C756   1.401       .  A
C755        N762   1.438       .  S
C756        C757   1.402       .  A
C757        C758   1.410       .  A
C758        N759   1.438       .  S
N759        H763   1.046       .  S
N759        H764   1.045       .  S
C767        C768   1.403       .  A
C767        C772   1.402       .  A
C767        H774   1.084       .  S
C769        C770   1.399       .  A
C769        N776   1.439       .  S
C770        H775   1.084       .  S
C771        C772   1.419       .  A
C772        N773   1.431       .  S
N773        H777   1.043       .  S
N773        H778   1.045       .  S
N776        H779   1.046       .  S
N776        H780   1.046       .  S
C781       C1618   1.410       .  A
C781        C786   1.402       .  A
C781        H788   1.084       .  S
C782       C1473   1.480       .  S
C782       C1617   1.409       .  A
C782        C783   1.414   1_655  A
C783        C784   1.395       .  A
C783        N790   1.432       .  S
C784        C785   1.404   1_455  A
C784        H789   1.085       .  S
C785       C1622   1.411       .  A
C786       C1621   1.412       .  A
C786        N787   1.438       .  S
N787        H791   1.045       .  S
N787        H792   1.043       .  S
N790        H793   1.044       .  S
N790        H794   1.045       .  S
C795       C1632   1.395       .  A
C795        C800   1.399       .  A
C795        H802   1.084       .  S
C796       C1631   1.398       .  A
C796        C797   1.410   1_655  A
C797        C798   1.401       .  A
C797        N804   1.433       .  S
C798       C1635   1.403   1_455  A
C798        H803   1.084       .  S
C799       C1634   1.403       .  A
C799        C800   1.415       .  A
C800        N801   1.431       .  S
N801        H805   1.046       .  S
N801        H806   1.046       .  S
N804        H807   1.046       .  S
N804        H808   1.046       .  S
C809       C1646   1.403       .  A
C809        C814   1.411       .  A
C809        H816   1.084       .  S
C810       C1645   1.403   1_455  A
C810        C811   1.420       .  A
C811        C812   1.405       .  A
C811        N818   1.438       .  S
C812        C813   1.404       .  A
C812        H817   1.082       .  S
C813       C1650   1.412   1_455  A
C814       C1649   1.419       .  A
C814        N815   1.438       .  S
N815        H819   1.046       .  S
N815        H820   1.045       .  S
N818        H821   1.043       .  S
N818        H822   1.045       .  S
C823        C824   1.410   1_455  A
C823        C828   1.407       .  A
C823        H830   1.083       .  S
C824       C1661   1.423       .  A
C825       C1660   1.422       .  A
C825        C826   1.400       .  A
C825        N832   1.432       .  S
C826       C1663   1.399       .  A
C826        H831   1.084       .  S
C827       C1662   1.400       .  A
C827        C828   1.406   1_655  A
C828        N829   1.438       .  S
N829        H833   1.046       .  S
N829        H834   1.045       .  S
N832        H835   1.045       .  S
N832        H836   1.045       .  S
O837        C845   1.276       .  A
O837      Co1275   2.013   1_655  S
O838        C846   1.263   1_455  A
O839       C1265   1.266       .  A
O839       Co859   1.892       .  S
O840       Co860   1.953       .  S
O841        C847   1.295   1_545  A
O842        C848   1.274   1_455  A
O842      Co1275   2.029   1_545  S
O843      Co1069   1.957   1_554  S
O844       C1263   1.265       .  A
O844      Co1068   1.972       .  S
C845       O1262   1.269   1_565  A
C845        C980   1.482   1_565  S
C847       O1257   1.266       .  A
C847        C966   1.471       .  S
C848       C1008   1.481       .  S
O849        C862   1.263       .  A
O850        C863   1.268       .  A
O850      Co1276   1.896       .  S
O851      Co1068   2.017       .  S
O852       C1283   1.281       .  A
O852      Co1069   2.029   1_554  S
O853        C865   1.272       .  A
O853      Co1276   1.975       .  S
O854        C864   1.261       .  A
O855       C1280   1.277       .  A
O855       Co860   2.038       .  S
O856       Co859   2.100       .  S
Co857      O1255   2.021   1_455  S
Co857      O1260   2.032       .  S
Co857      O1279   2.030       .  S
Co858      O1268   1.904       .  S
Co858      O1271   1.964       .  S
Co859      O1053   1.977   1_554  S
Co859      O1060   2.007   1_554  S
Co859      O1488   2.005   1_654  S
Co860      O1052   1.961       .  S
Co860      O1061   2.022       .  S
O861      Co1275   2.036   1_545  S
O861      Co1486   2.003   1_445  S
C862       O1273   1.276       .  A
C862        C952   1.498       .  S
C863       C1022   1.487       .  S
C864       C1033   1.487       .  S
C865       O1270   1.280       .  A
C865       C1356   1.493       .  S
N866        C871   1.355       .  A
N866        C870   1.352       .  A
N866        H898   1.040       .  S
N867        C874   1.346       .  A
N867        C875   1.350       .  A
N868        C873   1.347       .  A
N868        C872   1.351       .  A
N868        H899   1.040       .  S
N869        C876   1.350       .  A
N869        C877   1.351       .  A
C870        C878   1.388       .  A
C870        C886   1.415       .  A
C871        C887   1.417       .  A
C871        C879   1.387       .  A
C872        C880   1.385       .  A
C872        C889   1.406       .  A
C873        C888   1.408       .  A
C873        C881   1.389       .  A
C874        C886   1.408       .  A
C874        C882   1.387       .  A
C875        C889   1.409       .  A
C875        C883   1.385       .  A
C876        C884   1.387       .  A
C876        C887   1.415       .  A
C877        C885   1.385       .  A
C877        C888   1.412       .  A
C878        C879   1.377       .  A
C878        H890   1.082       .  S
C879        H891   1.082       .  S
C880        C881   1.371       .  A
C880        H892   1.083       .  S
C881        H893   1.082       .  S
C882        C883   1.378       .  A
C882        H894   1.082       .  S
C883        H895   1.082       .  S
C884        C885   1.381       .  A
C884        H896   1.082       .  S
C885        H897   1.082       .  S
C886       C1036   1.478       .  S
C887       C1019   1.495       .  S
C888        C994   1.480       .  S
C889       C1005   1.484       .  S
N900        C905   1.354       .  A
N900        C904   1.350       .  A
N900        H932   1.038   1_545  S
N901        C908   1.352       .  A
N901        C909   1.353       .  A
N902        C907   1.354       .  A
N902        C906   1.355       .  A
N902        H933   1.039   1_545  S
N903        C910   1.350   1_545  A
N903        C911   1.347   1_545  A
C904        C912   1.387       .  A
C904        C920   1.415       .  A
C905        C921   1.413       .  A
C905        C913   1.387       .  A
C906        C914   1.387       .  A
C906        C923   1.419       .  A
C907        C922   1.418       .  A
C907        C915   1.387       .  A
C908        C920   1.416       .  A
C908        C916   1.387   1_545  A
C909        C923   1.414       .  A
C909        C917   1.385   1_545  A
C910        C918   1.386       .  A
C910        C921   1.411   1_565  A
C911        C919   1.387       .  A
C911        C922   1.408   1_565  A
C912        C913   1.375       .  A
C912        H924   1.082       .  S
C913        H925   1.082       .  S
C914        C915   1.379       .  A
C914        H926   1.082       .  S
C915        H927   1.083       .  S
C916        C917   1.375       .  A
C916        H928   1.082       .  S
C917        H929   1.082       .  S
C918        C919   1.371       .  A
C918        H930   1.082       .  S
C919        H931   1.082       .  S
C920        C977   1.487       .  S
C921        C963   1.485       .  S
C922        C935   1.483       .  S
C923        C949   1.496       .  S
C934       C1353   1.401       .  A
C934        C939   1.406       .  A
C934        H941   1.084       .  S
C935       C1352   1.398   1_545  A
C935        C936   1.410       .  A
C936        C937   1.397       .  A
C936        N943   1.432       .  S
C937        C938   1.407   1_545  A
C937        H942   1.084       .  S
C938       C1283   1.490   1_565  S
C938       C1357   1.417       .  A
C939       C1356   1.415       .  A
C939        N940   1.431       .  S
N940        H944   1.045       .  S
N940        H945   1.045       .  S
N943        H946   1.045       .  S
N943        H947   1.046       .  S
C948        C949   1.404       .  A
C948        C953   1.413       .  A
C948        H955   1.083       .  S
C949       C1368   1.410   1_545  A
C950       C1367   1.409       .  A
C950        C951   1.401       .  A
C950        N957   1.433       .  S
C951        C952   1.411       .  A
C951        H956   1.083       .  S
C952       C1371   1.418       .  A
C953       C1370   1.418       .  A
C953        N954   1.437       .  S
N954        H958   1.046       .  S
N954        H959   1.046       .  S
N957        H960   1.046       .  S
N957        H961   1.045       .  S
C962        C963   1.405       .  A
C962        C967   1.409       .  A
C962        H969   1.083       .  S
C963        C964   1.407   1_545  A
C964        C965   1.399       .  A
C964        N971   1.438       .  S
C965        C966   1.400       .  A
C965       H1388   1.081       .  S
C966        C967   1.411   1_565  A
C967        N968   1.437       .  S
N968        H972   1.046       .  S
N968        H973   1.045       .  S
H970       C1383   1.084       .  S
N971       H1392   1.046       .  S
N971       H1393   1.046       .  S
H974       N1389   1.046       .  S
H975       N1389   1.046       .  S
C976        C977   1.403       .  A
C976        C981   1.402       .  A
C976        H983   1.084       .  S
C977       C1396   1.409   1_545  A
C978       C1395   1.409       .  A
C978        C979   1.400       .  A
C978        N985   1.438       .  S
C979       C1398   1.405       .  A
C979        H984   1.084       .  S
C980       C1397   1.406   1_545  A
C980        C981   1.416       .  A
C981        N982   1.432       .  S
N982        H986   1.045       .  S
N982        H987   1.045       .  S
N985        H988   1.046       .  S
N985        H989   1.046       .  S
C990        C995   1.404       .  A
C990        H997   1.084       .  S
C991        C992   1.416       .  A
C992        C993   1.397       .  A
C992        N999   1.431       .  S
C993        C994   1.403       .  A
C993        H998   1.084       .  S
C995        N996   1.438       .  S
N996       H1000   1.046       .  S
N996       H1001   1.043       .  S
N999       H1002   1.042       .  S
N999       H1003   1.045       .  S
C1004      C1009   1.402       .  A
C1004      H1011   1.084       .  S
C1005      C1006   1.408       .  A
C1006      C1007   1.401       .  A
C1006      N1013   1.433       .  S
C1007      H1012   1.084       .  S
C1008      C1009   1.415       .  A
C1009      N1010   1.432       .  S
N1010      H1014   1.046       .  S
N1010      H1015   1.046       .  S
N1013      H1016   1.046       .  S
N1013      H1017   1.046       .  S
C1018      C1023   1.407       .  A
C1018      H1025   1.084       .  S
C1019      C1020   1.415       .  A
C1020      C1021   1.400       .  A
C1020      N1027   1.433       .  S
C1021      C1022   1.403       .  A
C1021      H1026   1.081       .  S
C1023      N1024   1.432       .  S
N1024      H1028   1.045       .  S
N1024      H1029   1.046       .  S
N1027      H1030   1.045       .  S
N1027      H1031   1.043       .  S
C1032      C1033   1.408       .  A
C1032      C1037   1.403       .  A
C1032      H1039   1.083       .  S
C1034      C1035   1.403       .  A
C1034      N1041   1.432       .  S
C1035      H1040   1.084       .  S
C1036      C1037   1.405       .  A
C1037      N1038   1.438       .  S
N1038      H1042   1.046       .  S
N1038      H1043   1.046       .  S
N1041      H1044   1.045       .  S
N1041      H1045   1.045       .  S
O1046      C1054   1.277       .  A
O1046     Co1484   2.021   1_655  S
O1047      C1055   1.266   1_455  A
O1048      C1474   1.266       .  A
O1048     Co1068   1.889       .  S
O1049     Co1069   1.949       .  S
O1050      C1056   1.295   1_545  A
O1051      C1057   1.276   1_455  A
O1051     Co1484   2.041   1_545  S
O1053      C1472   1.269       .  A
C1054      O1471   1.267   1_565  A
C1054      C1189   1.484   1_565  S
C1056      O1466   1.266       .  A
C1056      C1175   1.475       .  S
C1057      C1217   1.485       .  S
O1058      C1071   1.260       .  A
O1059      C1072   1.267       .  A
O1059     Co1485   1.902       .  S
O1061      C1492   1.279       .  A
O1062      C1074   1.267       .  A
O1062     Co1485   1.960       .  S
O1063      C1073   1.259       .  A
O1064      C1489   1.272       .  A
O1064     Co1069   2.022       .  S
O1065     Co1068   2.105       .  S
Co1066     O1464   2.015   1_455  S
Co1066     O1469   2.032       .  S
Co1066     O1488   2.027       .  S
Co1067     O1477   1.909       .  S
Co1067     O1480   1.967       .  S
Co1068     O1279   2.007   1_655  S
O1070     Co1484   2.038       .  S
O1070     Co1277   2.000   1_456  S
C1071      O1482   1.275       .  A
C1071      C1161   1.490       .  S
C1072      C1231   1.486       .  S
C1073      C1242   1.493       .  S
C1074      O1479   1.279       .  A
C1074      C1565   1.485       .  S
N1075      C1080   1.353       .  A
N1075      C1079   1.355       .  A
N1075      H1107   1.041       .  S
N1076      C1083   1.346       .  A
N1076      C1084   1.349       .  A
N1077      C1082   1.348       .  A
N1077      C1081   1.349       .  A
N1077      H1108   1.041       .  S
N1078      C1085   1.350       .  A
N1078      C1086   1.351       .  A
C1079      C1087   1.387       .  A
C1079      C1095   1.416       .  A
C1080      C1096   1.418       .  A
C1080      C1088   1.388       .  A
C1081      C1089   1.386       .  A
C1081      C1098   1.406       .  A
C1082      C1097   1.405       .  A
C1082      C1090   1.388       .  A
C1083      C1095   1.408       .  A
C1083      C1091   1.386       .  A
C1084      C1098   1.410       .  A
C1084      C1092   1.386       .  A
C1085      C1093   1.388       .  A
C1085      C1096   1.416       .  A
C1086      C1094   1.384       .  A
C1086      C1097   1.411       .  A
C1087      C1088   1.378       .  A
C1087      H1099   1.082       .  S
C1088      H1100   1.082       .  S
C1089      C1090   1.373       .  A
C1089      H1101   1.082       .  S
C1090      H1102   1.083       .  S
C1091      C1092   1.378       .  A
C1091      H1103   1.082       .  S
C1092      H1104   1.082       .  S
C1093      C1094   1.381       .  A
C1093      H1105   1.082       .  S
C1094      H1106   1.082       .  S
C1095      C1245   1.483       .  S
C1096      C1228   1.497       .  S
C1097      C1203   1.482       .  S
C1098      C1214   1.484       .  S
N1109      C1114   1.354       .  A
N1109      C1113   1.352       .  A
N1109      H1141   1.037   1_545  S
N1110      C1117   1.353       .  A
N1110      C1118   1.351       .  A
N1111      C1116   1.355       .  A
N1111      C1115   1.355       .  A
N1111      H1142   1.036   1_545  S
N1112      C1119   1.352       .  A
N1112      C1120   1.350       .  A
C1113      C1121   1.387       .  A
C1113      C1129   1.415       .  A
C1114      C1130   1.414       .  A
C1114      C1122   1.387       .  A
C1115      C1123   1.388       .  A
C1115      C1132   1.419       .  A
C1116      C1131   1.420       .  A
C1116      C1124   1.388       .  A
C1117      C1129   1.414       .  A
C1117      C1125   1.385       .  A
C1118      C1132   1.415       .  A
C1118      C1126   1.387       .  A
C1119      C1127   1.386   1_545  A
C1119      C1130   1.413       .  A
C1120      C1128   1.387   1_545  A
C1120      C1131   1.412       .  A
C1121      C1122   1.374       .  A
C1121      H1133   1.083       .  S
C1122      H1134   1.082       .  S
C1123      C1124   1.379       .  A
C1123      H1135   1.083       .  S
C1124      H1136   1.083       .  S
C1125      C1126   1.373       .  A
C1125      H1137   1.082   1_545  S
C1126      H1138   1.082   1_545  S
C1127      C1128   1.371       .  A
C1127      H1139   1.082       .  S
C1128      H1140   1.082       .  S
C1129      C1186   1.489       .  S
C1130      C1172   1.487       .  S
C1131      C1144   1.488       .  S
C1132      C1158   1.488       .  S
C1143      C1562   1.397       .  A
C1143      C1148   1.401       .  A
C1143      H1150   1.084       .  S
C1144      C1561   1.399   1_545  A
C1144      C1145   1.411       .  A
C1145      C1146   1.399       .  A
C1145      N1152   1.433       .  S
C1146      C1147   1.409       .  A
C1146      H1151   1.084       .  S
C1147      C1492   1.489       .  S
C1147      C1566   1.415   1_545  A
C1148      C1565   1.416       .  A
C1148      N1149   1.431       .  S
N1149      H1153   1.043       .  S
N1149      H1154   1.045       .  S
N1152      H1155   1.044       .  S
N1152      H1156   1.046       .  S
C1157      C1158   1.400       .  A
C1157      C1162   1.408       .  A
C1157      H1164   1.084       .  S
C1158      C1577   1.409   1_545  A
C1159      C1576   1.407       .  A
C1159      C1160   1.396       .  A
C1159      N1166   1.433       .  S
C1160      C1161   1.411       .  A
C1160      H1165   1.083       .  S
C1161      C1580   1.417       .  A
C1162      C1579   1.420       .  A
C1162      N1163   1.438       .  S
N1163      H1167   1.046       .  S
N1163      H1168   1.046       .  S
N1166      H1169   1.045       .  S
N1166      H1170   1.045       .  S
C1171      C1172   1.403       .  A
C1171      C1176   1.408       .  A
C1171      H1178   1.084       .  S
C1172      C1173   1.409   1_545  A
C1173      C1174   1.402       .  A
C1173      N1180   1.438       .  S
C1174      C1175   1.402       .  A
C1174      H1597   1.082       .  S
C1175      C1176   1.412   1_565  A
C1176      N1177   1.438       .  S
N1177      H1181   1.046       .  S
N1177      H1182   1.046       .  S
H1179      C1592   1.080       .  S
N1180      H1601   1.046       .  S
N1180      H1602   1.046       .  S
H1183      N1598   1.046       .  S
H1184      N1598   1.046       .  S
C1185      C1186   1.403       .  A
C1185      C1190   1.403       .  A
C1185      H1192   1.084       .  S
C1186      C1605   1.409   1_545  A
C1187      C1604   1.407       .  A
C1187      C1188   1.399       .  A
C1187      N1194   1.439       .  S
C1188      C1607   1.407       .  A
C1188      H1193   1.084       .  S
C1189      C1606   1.406   1_545  A
C1189      C1190   1.417       .  A
C1190      N1191   1.431       .  S
N1191      H1195   1.044       .  S
N1191      H1196   1.044       .  S
N1194      H1197   1.046       .  S
N1194      H1198   1.046       .  S
C1199      C1204   1.404       .  A
C1199      H1206   1.084       .  S
C1200      C1201   1.414       .  A
C1201      C1202   1.395       .  A
C1201      N1208   1.432       .  S
C1202      C1203   1.404       .  A
C1202      H1207   1.085       .  S
C1204      N1205   1.438       .  S
N1205      H1209   1.046       .  S
N1205      H1210   1.043       .  S
N1208      H1211   1.044       .  S
N1208      H1212   1.045       .  S
C1213      C1218   1.402       .  A
C1213      H1220   1.084       .  S
C1214      C1215   1.410       .  A
C1215      C1216   1.402       .  A
C1215      N1222   1.433       .  S
C1216      H1221   1.084       .  S
C1217      C1218   1.419       .  A
C1218      N1219   1.432       .  S
N1219      H1223   1.046       .  S
N1219      H1224   1.046       .  S
N1222      H1225   1.046       .  S
N1222      H1226   1.046       .  S
C1227      C1232   1.405       .  A
C1227      H1234   1.084       .  S
C1228      C1229   1.418       .  A
C1229      C1230   1.400       .  A
C1229      N1236   1.434       .  S
C1230      C1231   1.403       .  A
C1230      H1235   1.080       .  S
C1232      N1233   1.431       .  S
N1233      H1237   1.044       .  S
N1233      H1238   1.045       .  S
N1236      H1239   1.045       .  S
N1236      H1240   1.042       .  S
C1241      C1242   1.410       .  A
C1241      C1246   1.402       .  A
C1241      H1248   1.083       .  S
C1243      C1244   1.401       .  A
C1243      N1250   1.433       .  S
C1244      H1249   1.084       .  S
C1245      C1246   1.402       .  A
C1246      N1247   1.432       .  S
N1247      H1251   1.045       .  S
N1247      H1252   1.046       .  S
N1250      H1253   1.045       .  S
N1250      H1254   1.045       .  S
O1255      C1263   1.278       .  A
O1256      C1264   1.267   1_455  A
O1257     Co1277   1.887       .  S
O1258     Co1278   1.949       .  S
O1259      C1265   1.293       .  A
O1260      C1266   1.274   1_455  A
O1261     Co1487   1.960   1_554  S
O1262     Co1486   1.976   1_545  S
C1263      C1398   1.486       .  S
C1265      C1384   1.472       .  S
C1266      C1426   1.481       .  S
O1267      C1280   1.264   1_565  A
O1268      C1281   1.268       .  A
O1269     Co1486   2.008       .  S
O1270     Co1487   2.023   1_554  S
O1271      C1283   1.268   1_565  A
O1272      C1282   1.260       .  A
O1273     Co1278   2.036       .  S
O1274     Co1277   2.097       .  S
Co1277     O1471   1.973   1_564  S
Co1277     O1478   2.011   1_554  S
Co1278     O1470   1.966       .  S
Co1278     O1479   2.023       .  S
C1280      C1370   1.498       .  S
C1281      C1440   1.488       .  S
C1282      C1451   1.485       .  S
N1284      C1289   1.356       .  A
N1284      C1288   1.355       .  A
N1284      H1316   1.039       .  S
N1285      C1292   1.346       .  A
N1285      C1293   1.350       .  A
N1286      C1291   1.347       .  A
N1286      C1290   1.349       .  A
N1286      H1317   1.040       .  S
N1287      C1294   1.350       .  A
N1287      C1295   1.351       .  A
C1288      C1296   1.387       .  A
C1288      C1304   1.418       .  A
C1289      C1305   1.421       .  A
C1289      C1297   1.388       .  A
C1290      C1298   1.385       .  A
C1290      C1307   1.404       .  A
C1291      C1306   1.406       .  A
C1291      C1299   1.388       .  A
C1292      C1304   1.407       .  A
C1292      C1300   1.387       .  A
C1293      C1307   1.409       .  A
C1293      C1301   1.385       .  A
C1294      C1302   1.387       .  A
C1294      C1305   1.415       .  A
C1295      C1303   1.385       .  A
C1295      C1306   1.411       .  A
C1296      C1297   1.376       .  A
C1296      H1308   1.082       .  S
C1297      H1309   1.082       .  S
C1298      C1299   1.372       .  A
C1298      H1310   1.083       .  S
C1299      H1311   1.082       .  S
C1300      C1301   1.376       .  A
C1300      H1312   1.082       .  S
C1301      H1313   1.082       .  S
C1302      C1303   1.379       .  A
C1302      H1314   1.082       .  S
C1303      H1315   1.082       .  S
C1304      C1454   1.480       .  S
C1305      C1437   1.496       .  S
C1306      C1412   1.481       .  S
C1307      C1423   1.483       .  S
N1318      C1323   1.352       .  A
N1318      C1322   1.351       .  A
N1318      H1350   1.038       .  S
N1319      C1326   1.353       .  A
N1319      C1327   1.351       .  A
N1320      C1325   1.356       .  A
N1320      C1324   1.355       .  A
N1320      H1351   1.038       .  S
N1321      C1328   1.351       .  A
N1321      C1329   1.351       .  A
C1322      C1330   1.387       .  A
C1322      C1338   1.414       .  A
C1323      C1339   1.413       .  A
C1323      C1331   1.387       .  A
C1324      C1332   1.387       .  A
C1324      C1341   1.420       .  A
C1325      C1340   1.419       .  A
C1325      C1333   1.387       .  A
C1326      C1338   1.414       .  A
C1326      C1334   1.386       .  A
C1327      C1341   1.414       .  A
C1327      C1335   1.386       .  A
C1328      C1336   1.387       .  A
C1328      C1339   1.414       .  A
C1329      C1337   1.386       .  A
C1329      C1340   1.411       .  A
C1330      C1331   1.375       .  A
C1330      H1342   1.083       .  S
C1331      H1343   1.081       .  S
C1332      C1333   1.379       .  A
C1332      H1344   1.082       .  S
C1333      H1345   1.083       .  S
C1334      C1335   1.376       .  A
C1334      H1346   1.082       .  S
C1335      H1347   1.082       .  S
C1336      C1337   1.371       .  A
C1336      H1348   1.082       .  S
C1337      H1349   1.082       .  S
C1338      C1395   1.490       .  S
C1339      C1381   1.485       .  S
C1340      C1353   1.491       .  S
C1341      C1367   1.493       .  S
C1352      C1357   1.404       .  A
C1352      H1359   1.084       .  S
C1353      C1354   1.411       .  A
C1354      C1355   1.399       .  A
C1354      N1361   1.433       .  S
C1355      C1356   1.409       .  A
C1355      H1360   1.084       .  S
C1357      N1358   1.430       .  S
N1358      H1362   1.043       .  S
N1358      H1363   1.045       .  S
N1361      H1364   1.044       .  S
N1361      H1365   1.045       .  S
C1366      C1367   1.402       .  A
C1366      C1371   1.411       .  A
C1366      H1373   1.084       .  S
C1368      C1369   1.400       .  A
C1368      N1375   1.433       .  S
C1369      C1370   1.410   1_565  A
C1369      H1374   1.083       .  S
C1371      N1372   1.437       .  S
N1372      H1376   1.046       .  S
N1372      H1377   1.046       .  S
N1375      H1378   1.046       .  S
N1375      H1379   1.045       .  S
C1380      C1381   1.403       .  A
C1380      C1385   1.407       .  A
C1380      H1387   1.084       .  S
C1381      C1382   1.410       .  A
C1382      C1383   1.401       .  A
C1382      N1389   1.438       .  S
C1383      C1384   1.401       .  A
C1384      C1385   1.412       .  A
C1385      N1386   1.438       .  S
N1386      H1390   1.046       .  S
N1386      H1391   1.046       .  S
C1394      C1395   1.403       .  A
C1394      C1399   1.405       .  A
C1394      H1401   1.084       .  S
C1396      C1397   1.400       .  A
C1396      N1403   1.439       .  S
C1397      H1402   1.084       .  S
C1398      C1399   1.420       .  A
C1399      N1400   1.432       .  S
N1400      H1404   1.044       .  S
N1400      H1405   1.045       .  S
N1403      H1406   1.046       .  S
N1403      H1407   1.046       .  S
C1408      C1413   1.401       .  A
C1408      H1415   1.084       .  S
C1409      C1410   1.415       .  A
C1410      C1411   1.395       .  A
C1410      N1417   1.432       .  S
C1411      C1412   1.403       .  A
C1411      H1416   1.085       .  S
C1413      N1414   1.432       .  S
N1414      H1418   1.045       .  S
N1414      H1419   1.045       .  S
N1417      H1420   1.044       .  S
N1417      H1421   1.045       .  S
C1422      C1427   1.402       .  A
C1422      H1429   1.084       .  S
C1423      C1424   1.409       .  A
C1424      C1425   1.399       .  A
C1424      N1431   1.433       .  S
C1425      H1430   1.084       .  S
C1426      C1427   1.415       .  A
C1427      N1428   1.432       .  S
N1428      H1432   1.046       .  S
N1428      H1433   1.046       .  S
N1431      H1434   1.046       .  S
N1431      H1435   1.046       .  S
C1436      C1441   1.404       .  A
C1436      H1443   1.084       .  S
C1437      C1438   1.414       .  A
C1438      C1439   1.399       .  A
C1438      N1445   1.434       .  S
C1439      C1440   1.403       .  A
C1439      H1444   1.077       .  S
C1441      N1442   1.432       .  S
N1442      H1446   1.044       .  S
N1442      H1447   1.045       .  S
N1445      H1448   1.046       .  S
N1445      H1449   1.043       .  S
C1450      C1451   1.408       .  A
C1450      C1455   1.403       .  A
C1450      H1457   1.083       .  S
C1452      C1453   1.401       .  A
C1452      N1459   1.432       .  S
C1453      H1458   1.084       .  S
C1454      C1455   1.405       .  A
C1455      N1456   1.438       .  S
N1456      H1460   1.046       .  S
N1456      H1461   1.045       .  S
N1459      H1462   1.045       .  S
N1459      H1463   1.044       .  S
O1464      C1472   1.277       .  A
O1465      C1473   1.263   1_455  A
O1466     Co1486   1.894       .  S
O1467     Co1487   1.943       .  S
O1468      C1474   1.296       .  A
O1469      C1475   1.274   1_455  A
C1472      C1607   1.485       .  S
C1474      C1593   1.476       .  S
C1475      C1635   1.480       .  S
O1476      C1489   1.263   1_565  A
O1477      C1490   1.270       .  A
O1480      C1492   1.270   1_565  A
O1481      C1491   1.259       .  A
O1482     Co1487   2.031       .  S
O1483     Co1486   2.101   1_455  S
C1489      C1579   1.493       .  S
C1490      C1649   1.493       .  S
C1491      C1660   1.490       .  S
N1493      C1498   1.355       .  A
N1493      C1497   1.355       .  A
N1493      H1525   1.040       .  S
N1494      C1501   1.344       .  A
N1494      C1502   1.348       .  A
N1495      C1500   1.346       .  A
N1495      C1499   1.347       .  A
N1495      H1526   1.041       .  S
N1496      C1503   1.351       .  A
N1496      C1504   1.353       .  A
C1497      C1505   1.387       .  A
C1497      C1513   1.417       .  A
C1498      C1514   1.420       .  A
C1498      C1506   1.388       .  A
C1499      C1507   1.385       .  A
C1499      C1516   1.401       .  A
C1500      C1515   1.404       .  A
C1500      C1508   1.388       .  A
C1501      C1513   1.406       .  A
C1501      C1509   1.387       .  A
C1502      C1516   1.405       .  A
C1502      C1510   1.384       .  A
C1503      C1511   1.387       .  A
C1503      C1514   1.419       .  A
C1504      C1512   1.385       .  A
C1504      C1515   1.417       .  A
C1505      C1506   1.377       .  A
C1505      H1517   1.082       .  S
C1506      H1518   1.082       .  S
C1507      C1508   1.373       .  A
C1507      H1519   1.083       .  S
C1508      H1520   1.083       .  S
C1509      C1510   1.378       .  A
C1509      H1521   1.082       .  S
C1510      H1522   1.082       .  S
C1511      C1512   1.383       .  A
C1511      H1523   1.082       .  S
C1512      H1524   1.082       .  S
C1513      C1663   1.480       .  S
C1514      C1646   1.500       .  S
C1515      C1621   1.488       .  S
C1516      C1632   1.476       .  S
N1527      C1532   1.354       .  A
N1527      C1531   1.352       .  A
N1527      H1559   1.038       .  S
N1528      C1535   1.351       .  A
N1528      C1536   1.350       .  A
N1529      C1534   1.354       .  A
N1529      C1533   1.354       .  A
N1529      H1560   1.037       .  S
N1530      C1537   1.350       .  A
N1530      C1538   1.349       .  A
C1531      C1539   1.386       .  A
C1531      C1547   1.415       .  A
C1532      C1548   1.415       .  A
C1532      C1540   1.387       .  A
C1533      C1541   1.388       .  A
C1533      C1550   1.418       .  A
C1534      C1549   1.417       .  A
C1534      C1542   1.388       .  A
C1535      C1547   1.412       .  A
C1535      C1543   1.386       .  A
C1536      C1550   1.412       .  A
C1536      C1544   1.386       .  A
C1537      C1545   1.387       .  A
C1537      C1548   1.412       .  A
C1538      C1546   1.386       .  A
C1538      C1549   1.408       .  A
C1539      C1540   1.374       .  A
C1539      H1551   1.083       .  S
C1540      H1552   1.081       .  S
C1541      C1542   1.378       .  A
C1541      H1553   1.083       .  S
C1542      H1554   1.083       .  S
C1543      C1544   1.373       .  A
C1543      H1555   1.082       .  S
C1544      H1556   1.082       .  S
C1545      C1546   1.369       .  A
C1545      H1557   1.082       .  S
C1546      H1558   1.082       .  S
C1547      C1604   1.488       .  S
C1548      C1590   1.488       .  S
C1549      C1562   1.482       .  S
C1550      C1576   1.484       .  S
C1561      C1566   1.403       .  A
C1561      H1568   1.084       .  S
C1562      C1563   1.411       .  A
C1563      C1564   1.397       .  A
C1563      N1570   1.433       .  S
C1564      C1565   1.407       .  A
C1564      H1569   1.084       .  S
C1566      N1567   1.430       .  S
N1567      H1571   1.045       .  S
N1567      H1572   1.045       .  S
N1570      H1573   1.044       .  S
N1570      H1574   1.045       .  S
C1575      C1576   1.401       .  A
C1575      C1580   1.408       .  A
C1575      H1582   1.084       .  S
C1577      C1578   1.399       .  A
C1577      N1584   1.433       .  S
C1578      C1579   1.410   1_565  A
C1578      H1583   1.083       .  S
C1580      N1581   1.437       .  S
N1581      H1585   1.046       .  S
N1581      H1586   1.046       .  S
N1584      H1587   1.045       .  S
N1584      H1588   1.045       .  S
C1589      C1590   1.405       .  A
C1589      C1594   1.409       .  A
C1589      H1596   1.084       .  S
C1590      C1591   1.409       .  A
C1591      C1592   1.399       .  A
C1591      N1598   1.439       .  S
C1592      C1593   1.401       .  A
C1593      C1594   1.412       .  A
C1594      N1595   1.437       .  S
N1595      H1599   1.046       .  S
N1595      H1600   1.045       .  S
C1603      C1604   1.404       .  A
C1603      C1608   1.404       .  A
C1603      H1610   1.084       .  S
C1605      C1606   1.402       .  A
C1605      N1612   1.438       .  S
C1606      H1611   1.084       .  S
C1607      C1608   1.418       .  A
C1608      N1609   1.432       .  S
N1609      H1613   1.044       .  S
N1609      H1614   1.045       .  S
N1612      H1615   1.046       .  S
N1612      H1616   1.046       .  S
C1617      C1622   1.400       .  A
C1617      H1624   1.084       .  S
C1618      C1619   1.415       .  A
C1619      C1620   1.399       .  A
C1619      N1626   1.433       .  S
C1620      C1621   1.407       .  A
C1620      H1625   1.085       .  S
C1622      N1623   1.438       .  S
N1623      H1627   1.046       .  S
N1623      H1628   1.043       .  S
N1626      H1629   1.045       .  S
N1626      H1630   1.045       .  S
C1631      C1636   1.402       .  A
C1631      H1638   1.084       .  S
C1632      C1633   1.411       .  A
C1633      C1634   1.405       .  A
C1633      N1640   1.438       .  S
C1634      H1639   1.084       .  S
C1635      C1636   1.415       .  A
C1636      N1637   1.432       .  S
N1637      H1641   1.046       .  S
N1637      H1642   1.046       .  S
N1640      H1643   1.046       .  S
N1640      H1644   1.046       .  S
C1645      C1650   1.404       .  A
C1645      H1652   1.084       .  S
C1646      C1647   1.417       .  A
C1647      C1648   1.402       .  A
C1647      N1654   1.433       .  S
C1648      C1649   1.404       .  A
C1648      H1653   1.079       .  S
C1650      N1651   1.432       .  S
N1651      H1655   1.045       .  S
N1651      H1656   1.045       .  S
N1654      H1657   1.045       .  S
N1654      H1658   1.043       .  S
C1659      C1660   1.411       .  A
C1659      C1664   1.400       .  A
C1659      H1666   1.083       .  S
C1661      C1662   1.401       .  A
C1661      N1668   1.432       .  S
C1662      H1667   1.084       .  S
C1663      C1664   1.401       .  A
C1664      N1665   1.432       .  S
N1665      H1669   1.046       .  S
N1665      H1670   1.046       .  S
N1668      H1671   1.044       .  S
N1668      H1672   1.045       .  S
