geometry optimzed in LAMMPS
_audit_creation_date              2020-11-30 
_audit_creation_method            'lammps2cif' 
_symmetry_space_group_name_H-M    'P1' 
_symmetry_Int_Tables_number       1 
_symmetry_cell_setting            triclinic 
loop_ 
_symmetry_equiv_pos_as_xyz 
  x,y,z 
_cell_length_a                    55.42522597 
_cell_length_b                    55.11431208969401 
_cell_length_c                    33.257690067642464 
_cell_angle_alpha                 89.86966903574816 
_cell_angle_beta                  90.01911257099852 
_cell_angle_gamma                 119.94785467150456 
loop_ 
_atom_site_label 
_atom_site_type_symbol 
_atom_site_fract_x 
_atom_site_fract_y 
_atom_site_fract_z 
_atom_site_charge 
O1          O  0.58592798  0.38907643  0.43813002    -0.88900
C2          C  0.61214235  0.44165910  0.53276874     0.87100
Mg3        Mg  0.59319328  0.40299444  0.37735506     1.58100
O4          O  0.54020892  0.40827215  0.52030322    -0.88600
O5          O  0.54981458  0.36313662  0.47683591    -0.76000
C6          C  0.54230251  0.48805727  0.36685489     0.92200
O7          O  0.63768012  0.45124854  0.44582643    -0.75800
O8          O  0.55949433  0.48234745  0.35027652    -0.83300
Mg9        Mg  0.62095955  0.40848973  0.47775286     1.58000
C10         C  0.50048169  0.45440533  0.52369743     0.92100
O11         O  0.60768378  0.36663643  0.50804000    -0.81600
H12         H  0.50314585  0.37322970  0.52065450    -0.06900
C13         C  0.58163776  0.48602875  0.46704348     0.87000
O14         O  0.54742876  0.39337975  0.37343567    -0.76100
O15         O  0.59793331  0.41832698  0.51743417    -0.88800
O16         O  0.51637493  0.44931849  0.54551126    -0.81600
C17         C  0.56364172  0.42155873  0.62210050     0.92200
C18         C  0.59206222  0.35022349  0.53538379     0.92100
Mg19       Mg  0.52421542  0.44146235  0.44117050     1.58000
O20         O  0.53322923  0.48012085  0.40247450    -0.81600
O21         O  0.50758723  0.40098799  0.47718220    -0.75800
O22         O  0.56697254  0.40372715  0.60196563    -0.81600
O23         O  0.64716315  0.39948805  0.43804532    -0.83400
O24         O  0.57750871  0.44145012  0.31342427    -0.81700
C25         C  0.51637311  0.39356257  0.50727632     0.86500
O26         O  0.54692727  0.42930318  0.40041012    -0.88800
O27         O  0.56161927  0.46314895  0.47689993    -0.88900
O28         O  0.59296529  0.48991438  0.43258074    -0.76000
Mg29       Mg  0.55892754  0.38471135  0.53825548     1.58000
O30         O  0.55657658  0.43809361  0.60572888    -0.83300
H31         H  0.55424953  0.35230725  0.42024023    -0.07100
O32         O  0.60747056  0.44488382  0.39837704    -0.88600
H33         H  0.64248613  0.48152436  0.40632756    -0.06900
H34         H  0.51257495  0.39668815  0.37786945    -0.07100
C35         C  0.62974517  0.46002289  0.41596750     0.86500
C36         C  0.56334700  0.36748258  0.44420909     0.87100
C37         C  0.53465611  0.40622104  0.38372404     0.87100
H38         H  0.59002746  0.50297777  0.48848837    -0.07100
O39         O  0.60224993  0.45753792  0.53990196    -0.76100
Mg40       Mg  0.58418048  0.46337174  0.37508346     1.58000
H41         H  0.63400489  0.44933444  0.53826406    -0.07100
C42         C  0.65291845  0.40430336  0.40112229     0.92100
O43         O  0.59863951  0.41611876  0.31182660    -0.83300
C44         C  0.58662742  0.42768527  0.29417942     0.92200
O45         O  0.57580912  0.35592228  0.55500536    -0.83300
Mg46       Mg  0.55835692  0.45091279  0.53950255     1.58200
O47         O  0.63802009  0.40926116  0.37685099    -0.81600
O48         O  0.50111860  0.45406024  0.48537251    -0.83300
O49         O  0.58770658  0.38816462  0.93529138    -0.88900
C50         C  0.61820155  0.44078489  0.03019465     0.87100
Mg51       Mg  0.59311589  0.40206281  0.87461934     1.58100
O52         O  0.54620058  0.40973012  0.02121393    -0.88600
O53         O  0.55285904  0.36288954  0.97627889    -0.76000
C54         C  0.54920531  0.49338712  0.87116796     0.92200
O55         O  0.64115093  0.44961181  0.94122380    -0.75800
O56         O  0.56607897  0.48708307  0.85505634    -0.83300
Mg57       Mg  0.62398874  0.40687839  0.97257378     1.58000
C58         C  0.50986059  0.46006616  0.03147260     0.92100
O59         O  0.61094545  0.36521640  0.00191666    -0.81600
H60         H  0.50815180  0.37598130  0.02247156    -0.06900
C61         C  0.58957358  0.48803894  0.96932275     0.87000
O62         O  0.54809197  0.39509441  0.87552355    -0.76100
O63         O  0.60299103  0.41768393  0.01479163    -0.88800
O64         O  0.52481869  0.45236697  0.05080009    -0.81600
C65         C  0.57115815  0.42127745  0.12209608     0.92200
C66         C  0.59695430  0.34996490  0.03122472     0.92100
Mg67       Mg  0.53010296  0.44640419  0.94595210     1.58000
O68         O  0.53961769  0.48536051  0.90663411    -0.81600
O69         O  0.51280703  0.40549313  0.98179077    -0.75800
O70         O  0.57396412  0.40336324  0.10141243    -0.81600
O71         O  0.64818360  0.39690329  0.93057958    -0.83400
O72         O  0.57803515  0.44301573  0.81419618    -0.81700
C73         C  0.52184828  0.39636180  0.00957166     0.86500
O74         O  0.55023768  0.43232063  0.90292699    -0.88800
O75         O  0.56862704  0.46594413  0.97941710    -0.88900
O76         O  0.60019168  0.49129779  0.93444165    -0.76000
Mg77       Mg  0.56429112  0.38478947  0.03753074     1.58000
O78         O  0.56488078  0.43856631  0.10640858    -0.83300
H79         H  0.55498890  0.35162965  0.91897396    -0.07100
O80         O  0.60978320  0.44409267  0.89635186    -0.88600
H81         H  0.64593579  0.47992850  0.90190580    -0.06900
H82         H  0.51444753  0.40015171  0.88312580    -0.07100
C83         C  0.63284933  0.45863365  0.91218836     0.86500
C84         C  0.56513976  0.36685600  0.94259919     0.87100
C85         C  0.53663513  0.40900711  0.88707739     0.87100
H86         H  0.59947372  0.50474732  0.99099112    -0.07100
O87         O  0.60933424  0.45733793  0.03877603    -0.76100
Mg88       Mg  0.58818940  0.46495345  0.87640085     1.58000
H89         H  0.64002617  0.44766739  0.03448850    -0.07100
C90         C  0.65294584  0.40154425  0.89344984     0.92100
O91         O  0.59620056  0.41510139  0.80904948    -0.83300
C92         C  0.58484251  0.42798220  0.79329711     0.92200
O93         O  0.58156699  0.35578408  0.05289933    -0.83300
Mg94       Mg  0.56606016  0.45243862  0.04127680     1.58200
O95         O  0.63745815  0.40640616  0.87014218    -0.81600
O96         O  0.50997555  0.46129326  0.99309876    -0.83300
O97         O  0.41361179  0.61148046  0.18467315    -0.88900
C98         C  0.38151902  0.55749458  0.27820209     0.87100
Mg99       Mg  0.40760751  0.59843135  0.12328152     1.58100
O100        O  0.45381010  0.58805844  0.26978738    -0.88600
O101        O  0.44787226  0.63588155  0.22685802    -0.76000
C102        C  0.45152309  0.50649280  0.11957950     0.92200
O103        O  0.35919743  0.55098545  0.18824045    -0.75800
O104        O  0.43688282  0.51413987  0.09948663    -0.83300
Mg105      Mg  0.37721312  0.59340224  0.22141294     1.58000
C106        C  0.48891696  0.53750770  0.27631294     0.92100
O107        O  0.39146924  0.63476466  0.25276784    -0.81600
H108        H  0.49163734  0.62214740  0.27002058    -0.06900
C109        C  0.40992682  0.51104436  0.21536359     0.87000
O110        O  0.45231629  0.60503337  0.12246572    -0.76100
O111        O  0.39712716  0.58067841  0.26320419    -0.88800
O112        O  0.47365653  0.54386836  0.29727113    -0.81600
C113        C  0.42837877  0.57400068  0.37065851     0.92200
C114        C  0.40494194  0.64868935  0.28327587     0.92100
Mg115      Mg  0.46847088  0.55263385  0.19233346     1.58000
O116        O  0.45604209  0.51200619  0.15690317    -0.81600
O117        O  0.48647890  0.59357539  0.22761221    -0.75800
O118        O  0.42553484  0.59217091  0.35049632    -0.81600
O119        O  0.35439474  0.60608486  0.17998776    -0.83400
O120        O  0.42067783  0.55680107  0.06034325    -0.81700
C121        C  0.47789574  0.60186604  0.25698949     0.86500
O122        O  0.44907305  0.56721727  0.14932426    -0.88800
O123        O  0.43031164  0.53336651  0.22600926    -0.88900
O124        O  0.40016113  0.50767665  0.17988724    -0.76000
Mg125      Mg  0.43584040  0.61254523  0.28745790     1.58000
O126        O  0.43472177  0.55710352  0.35404569    -0.83300
H127        H  0.44671107  0.64821029  0.16970520    -0.07100
O128        O  0.39009938  0.55544051  0.14304734    -0.88600
H129        H  0.35337454  0.52025426  0.14913379    -0.06900
H130        H  0.48522922  0.59864669  0.12890539    -0.07100
C131        C  0.36703486  0.54142447  0.15928820     0.86500
C132        C  0.43617244  0.63254559  0.19278266     0.87100
C133        C  0.46315097  0.59043803  0.13336362     0.87100
H134        H  0.40000473  0.49411738  0.23680177    -0.07100
O135        O  0.39005042  0.54065664  0.28678154    -0.76100
Mg136      Mg  0.41206023  0.53460273  0.12200396     1.58000
H137        H  0.35975716  0.55090322  0.28237999    -0.07100
C138        C  0.34910127  0.60134518  0.14298983     0.92100
O139        O  0.40416706  0.58633670  0.05746477    -0.83300
C140        C  0.41419894  0.57259284  0.04058670     0.92200
O141        O  0.41910203  0.64137225  0.30509471    -0.83300
Mg142      Mg  0.43310259  0.54491192  0.28844041     1.58200
O143        O  0.36359848  0.59511070  0.11973158    -0.81600
O144        O  0.48878181  0.53785135  0.23803512    -0.83300
O145        O  0.41675736  0.61269963  0.68470942    -0.88900
C146        C  0.38785798  0.56117166  0.78063037     0.87100
Mg147      Mg  0.40952868  0.59766116  0.62466067     1.58100
O148        O  0.45967351  0.59066381  0.76789520    -0.88600
O149        O  0.45306949  0.63780629  0.72329398    -0.76000
C150        C  0.45052589  0.50423577  0.61966305     0.92200
O151        O  0.36252172  0.55194172  0.69365740    -0.75800
O152        O  0.43351686  0.51061455  0.60412186    -0.83300
Mg153      Mg  0.38130353  0.59523903  0.72376830     1.58000
C154        C  0.49532811  0.54063383  0.77596163     0.92100
O155        O  0.39623808  0.63767827  0.75369398    -0.81600
H156        H  0.49772074  0.62440580  0.76650444    -0.06900
C157        C  0.41418559  0.51210481  0.71925322     0.87000
O158        O  0.45412463  0.60397635  0.62261982    -0.76100
O159        O  0.40298501  0.58416520  0.76471809    -0.88800
O160        O  0.47960422  0.54656117  0.79663022    -0.81600
C161        C  0.43604542  0.57971763  0.86987311     0.92200
C162        C  0.41171574  0.65270458  0.78228175     0.92100
Mg163      Mg  0.47284007  0.55326135  0.69158371     1.58000
O164        O  0.46140656  0.51303328  0.65426681    -0.81600
O165        O  0.49151685  0.59476912  0.72535857    -0.75800
O166        O  0.43402765  0.59805917  0.84897941    -0.81600
O167        O  0.35618578  0.60495813  0.68169893    -0.83400
O168        O  0.42036745  0.55397290  0.56357623    -0.81700
C169        C  0.48358185  0.60391605  0.75440567     0.86500
O170        O  0.45170813  0.56647491  0.64960859    -0.88800
O171        O  0.43538330  0.53437988  0.72767489    -0.88900
O172        O  0.40234909  0.50828227  0.68528127    -0.76000
Mg173      Mg  0.44288163  0.61632654  0.78502989     1.58000
O174        O  0.44186965  0.56212175  0.85425941    -0.83300
H175        H  0.44934599  0.64876237  0.66635076    -0.07100
O176        O  0.39268816  0.55581332  0.64780617    -0.88600
H177        H  0.35619242  0.52062186  0.65545252    -0.06900
H178        H  0.48725835  0.59783723  0.62752197    -0.07100
C179        C  0.36989012  0.54200234  0.66474307     0.86500
C180        C  0.43974426  0.63380325  0.69056015     0.87100
C181        C  0.46527587  0.58954659  0.63295403     0.87100
H182        H  0.40507368  0.49576613  0.74172957    -0.07100
O183        O  0.39654138  0.54436025  0.78856746    -0.76100
Mg184      Mg  0.41263558  0.53366390  0.62651343     1.58000
H185        H  0.36621002  0.55460115  0.78596002    -0.07100
C186        C  0.35075632  0.59952458  0.64470569     0.92100
O187        O  0.40413095  0.58356976  0.56006405    -0.83300
C188        C  0.41357651  0.56931628  0.54336373     0.92200
O189        O  0.42740940  0.64606164  0.80158382    -0.83300
Mg190      Mg  0.43930910  0.54809553  0.78915008     1.58200
O191        O  0.36575202  0.59382810  0.62182750    -0.81600
O192        O  0.49485368  0.54036371  0.73758587    -0.83300
O193        O  0.19488031  0.61116632  0.05688988    -0.88900
C194        C  0.17489898  0.55902833  0.96263312     0.87100
Mg195      Mg  0.18720940  0.59788704  0.11780870     1.58100
O196        O  0.13293516  0.58925595  0.97193512    -0.88600
O197        O  0.18583870  0.63682215  0.01563154    -0.76000
C198        C  0.05299398  0.50649815  0.12199515     0.92200
O199        O  0.18822318  0.55042195  0.05176961    -0.75800
O200        O  0.07542958  0.51375618  0.14108613    -0.83300
Mg201      Mg  0.21347990  0.59332867  0.02020720     1.58000
C202        C  0.04791670  0.53875085  0.96241634     0.92100
O203        O  0.24068237  0.63547991  0.99103935    -0.81600
H204        H  0.12814417  0.62286199  0.97095416    -0.06900
C205        C  0.09888131  0.51118677  0.02569678     0.87000
O206        O  0.14926252  0.60490749  0.11744526    -0.76100
O207        O  0.18215685  0.58217818  0.97749265    -0.88800
O208        O  0.07052736  0.54627057  0.94355059    -0.81600
C209        C  0.14511823  0.57626290  0.87121906     0.92200
C210        C  0.24200029  0.65097956  0.96186599     0.92100
Mg211      Mg  0.08110981  0.55253709  0.04779683     1.58000
O212        O  0.05301621  0.51253475  0.08491988    -0.81600
O213        O  0.10404581  0.59351929  0.01216187    -0.75800
O214        O  0.16571188  0.59528176  0.89082039    -0.81600
O215        O  0.24776177  0.60380228  0.06270073    -0.83400
O216        O  0.13259181  0.55652338  0.18021315    -0.81700
C217        C  0.12181185  0.60253732  0.98390371     0.86500
O218        O  0.11468275  0.56706282  0.09129259    -0.88800
O219        O  0.10106135  0.53374341  0.01529056    -0.88900
O220        O  0.10509450  0.50746071  0.06111122    -0.76000
Mg221      Mg  0.17531441  0.61459299  0.95456308     1.58000
O222        O  0.12239657  0.55863114  0.88813528    -0.83300
H223        H  0.19891996  0.64792922  0.07307263    -0.07100
O224        O  0.16219100  0.55520433  0.09747760    -0.88600
H225        H  0.16292237  0.51954276  0.09042420    -0.06900
H226        H  0.11020632  0.59900444  0.11049797    -0.07100
C227        C  0.17087798  0.54094784  0.08077642     0.86500
C228        C  0.19383572  0.63266383  0.04948761     0.87100
C229        C  0.12393030  0.59046830  0.10659517     0.87100
H230        H  0.09188351  0.49440724  0.00409866    -0.07100
O231        O  0.14959902  0.54169956  0.95533035    -0.76100
Mg232      Mg  0.11984373  0.53448148  0.11859188     1.58000
H233        H  0.19030936  0.55274476  0.95809792    -0.07100
C234        C  0.24776936  0.59900881  0.09983238     0.92100
O235        O  0.17821101  0.58600678  0.18328516    -0.83300
C236        C  0.15454250  0.57237412  0.20016699     0.92200
O237        O  0.22128854  0.64446252  0.93872039    -0.83300
Mg238      Mg  0.11108140  0.54619101  0.95328964     1.58200
O239        O  0.22717626  0.59365125  0.12273859    -0.81600
O240        O  0.04637035  0.53735889  0.00069254    -0.83300
O241        O  0.19732295  0.61042055  0.55851551    -0.88900
C242        C  0.17331879  0.55947876  0.46158320     0.87100
Mg243      Mg  0.18982820  0.59620842  0.61882534     1.58100
O244        O  0.13310360  0.59138060  0.47430628    -0.88600
O245        O  0.18699935  0.63650211  0.51995639    -0.76000
C246        C  0.05565541  0.50605937  0.62363765     0.92200
O247        O  0.18888685  0.54856976  0.54914929    -0.75800
O248        O  0.07876180  0.51134728  0.63873704    -0.83300
Mg249      Mg  0.21399935  0.59166112  0.51912340     1.58000
C250        C  0.04633015  0.54276451  0.46850345     0.92100
O251        O  0.24171057  0.63383218  0.49140182    -0.81600
H252        H  0.12987043  0.62587526  0.47594726    -0.06900
C253        C  0.09909656  0.51264526  0.52355993     0.87000
O254        O  0.15237448  0.60384564  0.62076160    -0.76100
O255        O  0.18174959  0.58235247  0.47812662    -0.88800
O256        O  0.06757524  0.54840780  0.44683490    -0.81600
C257        C  0.14483988  0.58044188  0.37248993     0.92200
C258        C  0.24323810  0.65113605  0.46501184     0.92100
Mg259      Mg  0.08288671  0.55510963  0.55167020     1.58000
O260        O  0.05386803  0.51563340  0.58946603    -0.81600
O261        O  0.10626082  0.59648424  0.51736776    -0.75800
O262        O  0.16581621  0.59809585  0.39305409    -0.81600
O263        O  0.24850057  0.59990582  0.56041427    -0.83400
O264        O  0.13495728  0.55360635  0.67928331    -0.81700
C265        C  0.12312747  0.60523999  0.48806589     0.86500
O266        O  0.11733044  0.56720125  0.59295170    -0.88800
O267        O  0.10003938  0.53497470  0.51508759    -0.88900
O268        O  0.10726264  0.50869875  0.55742179    -0.76000
Mg269      Mg  0.17589795  0.61602128  0.45779095     1.58000
O270        O  0.12141661  0.56341630  0.38855966    -0.83300
H271        H  0.20125875  0.64669973  0.57706477    -0.07100
O272        O  0.16439249  0.55433689  0.59608919    -0.88600
H273        H  0.16431344  0.51828095  0.58896681    -0.06900
H274        H  0.11358038  0.59882250  0.61546650    -0.07100
C275        C  0.17241751  0.53966110  0.57908341     0.86500
C276        C  0.19588115  0.63188797  0.55271028     0.87100
C277        C  0.12698999  0.59008984  0.61000584     0.87100
H278        H  0.09188514  0.49634696  0.50114304    -0.07100
O279        O  0.14783309  0.54360530  0.45323040    -0.76100
Mg280      Mg  0.12242385  0.53348934  0.61651451     1.58000
H281        H  0.18784643  0.55220540  0.45588895    -0.07100
C282        C  0.24922940  0.59578259  0.59770445     0.92100
O283        O  0.18066503  0.58284329  0.68395728    -0.83300
C284        C  0.15668479  0.56897238  0.69990909     0.92200
O285        O  0.22224635  0.64597280  0.44319486    -0.83300
Mg286      Mg  0.10957756  0.54886946  0.45345786     1.58200
O287        O  0.22945643  0.59162268  0.62156288    -0.81600
O288        O  0.04747337  0.54287811  0.50682340    -0.83300
O289        O  0.80192675  0.38698045  0.30567386    -0.88900
C290        C  0.82386631  0.44173951  0.21366871     0.87100
Mg291      Mg  0.80959202  0.39894290  0.36694935     1.58100
O292        O  0.86476711  0.41042487  0.22180562    -0.88600
O293        O  0.81087036  0.36202099  0.26320923    -0.76000
C294        C  0.94431036  0.49243529  0.37503426     0.92200
O295        O  0.80871405  0.44820765  0.30276016    -0.75800
O296        O  0.92089412  0.48594889  0.39055560    -0.83300
Mg297      Mg  0.78388843  0.40615698  0.26979956     1.58000
C298        C  0.95094233  0.46045898  0.21407264     0.92100
O299        O  0.75629784  0.36445566  0.23949626    -0.81600
H300        H  0.86907219  0.37653754  0.22059470    -0.06900
C301        C  0.89905551  0.48785559  0.27673281     0.87000
O302        O  0.84795980  0.39272244  0.36578604    -0.76100
O303        O  0.81570522  0.41804264  0.22743329    -0.88800
O304        O  0.92846554  0.45311160  0.19478127    -0.81600
C305        C  0.85380418  0.42532892  0.12126838     0.92200
C306        C  0.75506272  0.34954923  0.20967076     0.92100
Mg307      Mg  0.91708991  0.44587006  0.29896188     1.58000
O308        O  0.94621917  0.48403559  0.33997116    -0.81600
O309        O  0.89353372  0.40564595  0.26167198    -0.75800
O310        O  0.83250727  0.40668413  0.14025394    -0.81600
O311        O  0.74977955  0.39573227  0.31226669    -0.83400
O312        O  0.86419626  0.44010621  0.42938132    -0.81700
C313        C  0.87561126  0.39683794  0.23364824     0.86500
O314        O  0.88299867  0.43119640  0.34139132    -0.88800
O315        O  0.89798935  0.46581878  0.26634615    -0.88900
O316        O  0.89122410  0.49064120  0.31147072    -0.76000
Mg317      Mg  0.82220351  0.38583611  0.20326315     1.58000
O318        O  0.87669071  0.44193613  0.13865328    -0.83300
H319        H  0.79716655  0.34961595  0.32018328    -0.07100
O320        O  0.83433807  0.44188968  0.34738235    -0.88600
H321        H  0.83338462  0.47762015  0.34340865    -0.06900
H322        H  0.88707864  0.39877805  0.35949717    -0.07100
C323        C  0.82561814  0.45660206  0.33220481     0.86500
C324        C  0.80267667  0.36548838  0.29728704     0.87100
C325        C  0.87346135  0.40743739  0.35579493     0.87100
H326        H  0.90609478  0.50486184  0.25540041    -0.07100
O327        O  0.84939487  0.45860219  0.20666039    -0.76100
Mg328      Mg  0.87659679  0.46313340  0.36833389     1.58000
H329        H  0.80902664  0.44883347  0.20961528    -0.07100
C330        C  0.74884528  0.39796328  0.34993911     0.92100
O331        O  0.81851516  0.41026806  0.43272996    -0.83300
C332        C  0.84228665  0.42390978  0.44927123     0.92200
O333        O  0.77594968  0.35664181  0.18652161    -0.83300
Mg334      Mg  0.88779834  0.45367618  0.20416819     1.58200
O335        O  0.76896790  0.40150515  0.37259840    -0.81600
O336        O  0.95210244  0.46136256  0.25239411    -0.83300
O337        O  0.80663813  0.38986386  0.80791812    -0.88900
C338        C  0.82758863  0.43971911  0.70946439     0.87100
Mg339      Mg  0.81379117  0.40506046  0.86828663     1.58100
O340        O  0.86889377  0.40872915  0.72241353    -0.88600
O341        O  0.81534013  0.36323466  0.76821471    -0.76000
C342        C  0.94761718  0.49545870  0.86763631     0.92200
O343        O  0.81237551  0.45031162  0.79776147    -0.75800
O344        O  0.92548835  0.48941981  0.88679509    -0.83300
Mg345      Mg  0.78802570  0.40656027  0.76873838     1.58000
C346        C  0.95411194  0.45755772  0.71563060     0.92100
O347        O  0.76114643  0.36352511  0.74147722    -0.81600
H348        H  0.87193759  0.37418772  0.72655372    -0.06900
C349        C  0.90197993  0.48775670  0.77025565     0.87000
O350        O  0.85156378  0.39818005  0.87168669    -0.76100
O351        O  0.82015981  0.41724904  0.72676338    -0.88800
O352        O  0.93302359  0.45212626  0.69402678    -0.81600
C353        C  0.85708895  0.41964540  0.62022018     0.92200
C354        C  0.76004595  0.34862067  0.71170332     0.92100
Mg355      Mg  0.91853855  0.44638215  0.79891357     1.58000
O356        O  0.94702986  0.48819578  0.83115070    -0.81600
O357        O  0.89516366  0.40409986  0.76736246    -0.75800
O358        O  0.83636248  0.40230297  0.64139127    -0.81600
O359        O  0.75324426  0.39656280  0.81069757    -0.83400
O360        O  0.86831437  0.44875781  0.92858859    -0.81700
C361        C  0.87869614  0.39504393  0.73761612     0.86500
O362        O  0.88517881  0.43458988  0.84150589    -0.88800
O363        O  0.90018395  0.46502106  0.76203830    -0.88900
O364        O  0.89548333  0.49259862  0.80483790    -0.76000
Mg365      Mg  0.82643590  0.38422971  0.70568243     1.58000
O366        O  0.88065359  0.43674849  0.63554146    -0.83300
H367        H  0.80269794  0.35346180  0.82620343    -0.07100
O368        O  0.83845778  0.44710985  0.84489479    -0.88600
H369        H  0.83711609  0.48225318  0.83516403    -0.06900
H370        H  0.89085940  0.40461438  0.86599816    -0.07100
C371        C  0.82953422  0.46069276  0.82678368     0.86500
C372        C  0.80769917  0.36823119  0.80182275     0.87100
C373        C  0.87669123  0.41234564  0.86001114     0.87100
H374        H  0.90883597  0.50374095  0.74732415    -0.07100
O375        O  0.85277360  0.45590662  0.69985007    -0.76100
Mg376      Mg  0.88091686  0.46840280  0.86503314     1.58000
H377        H  0.81246646  0.44627102  0.70392925    -0.07100
C378        C  0.75285685  0.40184280  0.84760259     0.92100
O379        O  0.82249803  0.41989482  0.93284804    -0.83300
C380        C  0.84631218  0.43389622  0.94917186     0.92200
O381        O  0.78090054  0.35580244  0.68872791    -0.83300
Mg382      Mg  0.89138953  0.45124428  0.70051639     1.58200
O383        O  0.77360654  0.40834115  0.87064942    -0.81600
O384        O  0.95308331  0.45763365  0.75383352    -0.83300
O385        O  0.61211656  0.19619945  0.10915658    -0.88900
C386        C  0.56030124  0.17475050  0.20495367     0.87100
Mg387      Mg  0.59883039  0.18910625  0.04817338     1.58100
O388        O  0.59093059  0.13308623  0.19555912    -0.88600
O389        O  0.63740896  0.18678719  0.15053743    -0.76000
C390        C  0.50706794  0.05441905  0.04458427     0.92200
O391        O  0.55150064  0.18974621  0.11565403    -0.75800
O392        O  0.51352840  0.07760920  0.02787527    -0.83300
Mg393      Mg  0.59417195  0.21449981  0.14650188     1.58000
C394        C  0.54153900  0.04632729  0.20170926     0.92100
O395        O  0.63615286  0.24186787  0.17461705    -0.81600
H396        H  0.62487929  0.12919783  0.19447095    -0.06900
C397        C  0.51337406  0.09990237  0.14253196     0.87000
O398        O  0.60550520  0.15085373  0.04739297    -0.76100
O399        O  0.58313986  0.18243053  0.18908878    -0.88800
O400        O  0.54666477  0.06778827  0.22263285    -0.81600
C401        C  0.57828508  0.14511514  0.29641705     0.92200
C402        C  0.65158959  0.24371858  0.20392701     0.92100
Mg403      Mg  0.55504201  0.08226140  0.11765086     1.58000
O404        O  0.51576200  0.05300256  0.07960810    -0.81600
O405        O  0.59579616  0.10570301  0.15288729    -0.75800
O406        O  0.59631589  0.16624945  0.27627513    -0.81600
O407        O  0.60438402  0.24923945  0.10416527    -0.83400
O408        O  0.55778599  0.13435509  0.98643562    -0.81700
C409        C  0.60449607  0.12269952  0.18211315     0.86500
O410        O  0.56832012  0.11642593  0.07514790    -0.88800
O411        O  0.53528697  0.10069566  0.15241714    -0.88900
O412        O  0.51009178  0.10750117  0.10775171    -0.76000
Mg413      Mg  0.61565850  0.17619439  0.21217010     1.58000
O414        O  0.56141829  0.12168707  0.28013755    -0.83300
H415        H  0.64842393  0.19963821  0.09288525    -0.07100
O416        O  0.55674316  0.16433166  0.06940286    -0.88600
H417        H  0.52126532  0.16509056  0.07609424    -0.06900
H418        H  0.59939286  0.11147203  0.05397644    -0.07100
C419        C  0.54243205  0.17290627  0.08607673     0.86500
C420        C  0.63331064  0.19478726  0.11655792     0.87100
C421        C  0.59120479  0.12545321  0.05863575     0.87100
H422        H  0.49677699  0.09315765  0.16437034    -0.07100
O423        O  0.54381225  0.14929151  0.21360135    -0.76100
Mg424      Mg  0.53588177  0.12200427  0.04911851     1.58000
H425        H  0.55365446  0.18991499  0.20980825    -0.07100
C426        C  0.60036093  0.24986071  0.06686051     0.92100
O427        O  0.58619375  0.18051219  0.98291227    -0.83300
C428        C  0.57325373  0.15660069  0.96633982     0.92200
O429        O  0.64509826  0.22302128  0.22753440    -0.83300
Mg430      Mg  0.54805329  0.11020648  0.21470773     1.58200
O431        O  0.59518870  0.22935347  0.04380163    -0.81600
O432        O  0.54198246  0.04705612  0.16338833    -0.83300
O433        O  0.61425814  0.19709261  0.60693360    -0.88900
C434        C  0.56531865  0.17694699  0.70496538     0.87100
Mg435      Mg  0.59764954  0.18938890  0.54762722     1.58100
O436        O  0.59472381  0.13426403  0.69287072    -0.88600
O437        O  0.64024785  0.18692319  0.64565151    -0.76000
C438        C  0.50778012  0.05440821  0.54700236     0.92200
O439        O  0.55469314  0.19198625  0.61762766    -0.75800
O440        O  0.51400540  0.07742077  0.52996689    -0.83300
Mg441      Mg  0.59871191  0.21644491  0.64575586     1.58000
C442        C  0.54296351  0.04823087  0.70353631     0.92100
O443        O  0.64133480  0.24281198  0.67213854    -0.81600
H444        H  0.62795965  0.12914443  0.69152586    -0.06900
C445        C  0.51558438  0.10035360  0.64567153     0.87000
O446        O  0.60514713  0.15135697  0.54537293    -0.76100
O447        O  0.58788410  0.18437114  0.68836398    -0.88800
O448        O  0.55245212  0.07096122  0.72328336    -0.81600
C449        C  0.58541379  0.14766966  0.79522115     0.92200
C450        C  0.65700096  0.24384492  0.70061467     0.92100
Mg451      Mg  0.55599223  0.08226087  0.61854781     1.58000
O452        O  0.51571132  0.05335690  0.58263980    -0.81600
O453        O  0.59764289  0.10494994  0.65184024    -0.75800
O454        O  0.60324072  0.16830368  0.77415126    -0.81600
O455        O  0.61005695  0.25151944  0.60298861    -0.83400
O456        O  0.55649920  0.13352914  0.48914943    -0.81700
C457        C  0.60747335  0.12290055  0.67981277     0.86500
O458        O  0.56931753  0.11654134  0.57559224    -0.88800
O459        O  0.53814910  0.10209879  0.65387707    -0.88900
O460        O  0.51092780  0.10714190  0.61118859    -0.76000
Mg461      Mg  0.62041851  0.17702480  0.70876811     1.58000
O462        O  0.56785475  0.12426824  0.77971134    -0.83300
H463        H  0.64955817  0.19951060  0.58754663    -0.07100
O464        O  0.55715661  0.16409779  0.57285479    -0.88600
H465        H  0.52233536  0.16580962  0.58189757    -0.06900
H466        H  0.60046214  0.11249685  0.55230859    -0.07100
C467        C  0.54384502  0.17360916  0.59006229     0.86500
C468        C  0.63532280  0.19507146  0.61236062     0.87100
C469        C  0.59184037  0.12603668  0.55768060     0.87100
H470        H  0.49964090  0.09338159  0.66856797    -0.07100
O471        O  0.54880807  0.15158357  0.71410485    -0.76100
Mg472      Mg  0.53594063  0.12170168  0.55202478     1.58000
H473        H  0.55889295  0.19225745  0.71002025    -0.07100
C474        C  0.59896041  0.25005053  0.56922099     0.92100
O475        O  0.58193634  0.17986011  0.48351224    -0.83300
C476        C  0.57003665  0.15557295  0.46796184     0.92200
O477        O  0.65068125  0.22295840  0.72353970    -0.83300
Mg478      Mg  0.55284929  0.11243537  0.71507824     1.58200
O479        O  0.59083675  0.22856243  0.54668516    -0.81600
O480        O  0.54122845  0.04732191  0.66529203    -0.83300
O481        O  0.39038550  0.80287184  0.36140434    -0.88900
C482        C  0.44064416  0.82276221  0.45827058     0.87100
Mg483      Mg  0.40422115  0.81001304  0.30108133     1.58100
O484        O  0.41169055  0.86573753  0.44755072    -0.88600
O485        O  0.36546523  0.81378041  0.40109968    -0.76000
C486        C  0.49599364  0.94443573  0.29633544     0.92200
O487        O  0.45039491  0.80826530  0.36991829    -0.75800
O488        O  0.48984659  0.92101126  0.28093836    -0.83300
Mg489      Mg  0.40718699  0.78376366  0.39961884     1.58000
C490        C  0.46185519  0.95164577  0.45575970     0.92100
O491        O  0.36455649  0.75686089  0.42629330    -0.81600
H492        H  0.37848125  0.87086231  0.44720633    -0.12900
C493        C  0.48980801  0.89857967  0.39636027     0.87000
O494        O  0.39816892  0.84874874  0.29999613    -0.76100
O495        O  0.41802010  0.81559221  0.44203969    -0.88800
O496        O  0.45548810  0.92971065  0.47640524    -0.81600
C497        C  0.42143610  0.85183996  0.54858537     0.92200
C498        C  0.34839144  0.75579956  0.45403537     0.92100
Mg499      Mg  0.44877618  0.91700763  0.37086930     1.58000
O500        O  0.48791885  0.94632472  0.33164144    -0.81600
O501        O  0.40788445  0.89426244  0.40584013    -0.75800
O502        O  0.40339103  0.83128451  0.52779529    -0.81600
O503        O  0.39724401  0.74923653  0.35748254    -0.83400
O504        O  0.44556596  0.86471673  0.24086431    -0.81700
C505        C  0.39871505  0.87692079  0.43469815     0.86500
O506        O  0.43515297  0.88278366  0.32855631    -0.88800
O507        O  0.46789219  0.89788860  0.40594321    -0.88900
O508        O  0.49319930  0.89104727  0.36164377    -0.76000
Mg509      Mg  0.38575206  0.82288768  0.46325193     1.58000
O510        O  0.43926147  0.87520467  0.53292489    -0.83300
H511        H  0.35540345  0.80159563  0.34316127    -0.07100
O512        O  0.44612213  0.83429204  0.32344118    -0.88600
H513        H  0.48130964  0.83304988  0.33109506    -0.06900
H514        H  0.40446589  0.88817236  0.30680240    -0.07100
C515        C  0.46000936  0.82535571  0.34054973     0.86500
C516        C  0.36977648  0.80551499  0.36762673     0.87100
C517        C  0.41245731  0.87403736  0.31161585     0.87100
H518        H  0.50625073  0.90518185  0.41829840    -0.07100
O519        O  0.45755203  0.84810062  0.46682983    -0.76100
Mg520      Mg  0.46742810  0.87673265  0.30305649     1.58000
H521        H  0.44680506  0.80723788  0.46333471    -0.07100
C522        C  0.40156856  0.74862952  0.32029964     0.92100
O523        O  0.41733057  0.81870986  0.23619857    -0.83300
C524        C  0.43021801  0.84285367  0.22019605     0.92200
O525        O  0.35489188  0.77656806  0.47726881    -0.83300
Mg526      Mg  0.45401604  0.88751868  0.46801515     1.58200
O527        O  0.40714124  0.76927899  0.29712749    -0.81600
O528        O  0.46232973  0.95169247  0.41736847    -0.83300
O529        O  0.38762447  0.80303068  0.86246531    -0.88900
C530        C  0.43845715  0.82464513  0.95733916     0.87100
Mg531      Mg  0.40299966  0.80993186  0.80225779     1.58100
O532        O  0.40589021  0.86472239  0.94712661    -0.88600
O533        O  0.36064441  0.81061279  0.90280535    -0.76000
C534        C  0.48826356  0.94588540  0.79636898     0.92200
O535        O  0.44757372  0.80930863  0.87002203    -0.75800
O536        O  0.48340664  0.92331670  0.77918147    -0.83300
Mg537      Mg  0.40391051  0.78380193  0.89981274     1.58000
C538        C  0.45395607  0.95151242  0.95343531     0.92100
O539        O  0.36152739  0.75681657  0.92763797    -0.81600
H540        H  0.37108796  0.86707764  0.94635844    -0.06900
C541        C  0.48430162  0.90228941  0.89529301     0.87000
O542        O  0.39320407  0.84619627  0.79818699    -0.76100
O543        O  0.41511673  0.81580121  0.94253114    -0.88800
O544        O  0.44872900  0.93006195  0.97445456    -0.81600
C545        C  0.41927288  0.85395695  0.04856990     0.92200
C546        C  0.34661254  0.75499651  0.95766449     0.92100
Mg547      Mg  0.44020585  0.91578262  0.86929903     1.58000
O548        O  0.47880118  0.94601725  0.83131929    -0.81600
O549        O  0.39958482  0.89122870  0.90441135    -0.75800
O550        O  0.40161718  0.83244488  0.02883815    -0.81600
O551        O  0.39171592  0.74875545  0.85658713    -0.83400
O552        O  0.44275135  0.86459332  0.74048549    -0.81700
C553        C  0.39155782  0.87430363  0.93380904     0.86500
O554        O  0.42873861  0.88200027  0.82676883    -0.88800
O555        O  0.46107723  0.89861336  0.90423681    -0.88900
O556        O  0.48910253  0.89573383  0.86082879    -0.76000
Mg557      Mg  0.38225654  0.82186509  0.96481322     1.58000
O558        O  0.43527122  0.87732149  0.03143611    -0.83300
H559        H  0.35102682  0.79827835  0.84471702    -0.07100
O560        O  0.44387113  0.83682761  0.82553418    -0.88600
H561        H  0.47944079  0.83638392  0.83398770    -0.06900
H562        H  0.39686299  0.88468971  0.80332146    -0.07100
C563        C  0.45785072  0.82794840  0.84252262     0.86500
C564        C  0.36581431  0.80347476  0.86889365     0.87100
C565        C  0.40606072  0.87172427  0.80922780     0.87100
H566        H  0.50067001  0.91070885  0.91747936    -0.07100
O567        O  0.45422061  0.85037244  0.96514161    -0.76100
Mg568      Mg  0.46336325  0.87892576  0.80283474     1.58000
H569        H  0.44615508  0.81029060  0.96197689    -0.07100
C570        C  0.40386571  0.75083277  0.82360931     0.92100
O571        O  0.41699613  0.81821725  0.73760533    -0.83300
C572        C  0.42889168  0.84203373  0.72055755     0.92200
O573        O  0.35383186  0.77547038  0.98173519    -0.83300
Mg574      Mg  0.44847777  0.88859646  0.96626236     1.58200
O575        O  0.41238724  0.77272734  0.80189563    -0.81600
O576        O  0.45272342  0.95071763  0.91513142    -0.83300
C577        C  0.41517125  0.86396909  0.61869086    -0.02400
C578        C  0.42201203  0.84829056  0.59248753     0.07300
C579        C  0.42997126  0.82957851  0.60826068    -0.02500
C580        C  0.43211497  0.82733311  0.65014336    -0.02500
C581        C  0.42616397  0.84375088  0.67649451     0.07400
C582        C  0.41725112  0.86176593  0.66056565    -0.02700
Br583      Br  0.40641984  0.88245782  0.69594624    -0.01300
Br584      Br  0.40156221  0.88740268  0.59711975    -0.01300
Br585      Br  0.44480412  0.80291410  0.67087232    -0.01300
Br586      Br  0.43896747  0.80776183  0.57229195    -0.01300
C587        C  0.44858544  0.86272163  0.11045235    -0.02400
C588        C  0.42190811  0.85161893  0.09272118     0.07300
C589        C  0.39796321  0.83789588  0.11731699    -0.02500
C590        C  0.40063801  0.83437802  0.15878881    -0.02500
C591        C  0.42731004  0.84570461  0.17640516     0.07400
C592        C  0.45122740  0.86011551  0.15212657    -0.02700
Br593      Br  0.48785098  0.87495199  0.17551650    -0.01300
Br594      Br  0.48190807  0.88020882  0.07778011    -0.01300
Br595      Br  0.36754530  0.81482877  0.19157754    -0.01300
Br596      Br  0.36144799  0.82564531  0.09506564    -0.01300
C597        C  0.54257059  0.00564641  0.73197959    -0.02400
C598        C  0.52975014  0.02193099  0.72676755     0.07300
C599        C  0.50377091  0.01359619  0.74485126    -0.02500
C600        C  0.49049210  0.98894951  0.76792470    -0.02500
C601        C  0.50338195  0.97262569  0.77379083     0.07400
C602        C  0.52946572  0.98104639  0.75561851    -0.02700
Br603      Br  0.54773552  0.95952156  0.76427855    -0.01300
Br604      Br  0.57821300  0.01749289  0.70734721    -0.01300
Br605      Br  0.45362563  0.97675868  0.78888251    -0.01300
Br606      Br  0.48590209  0.03575860  0.73685915    -0.01300
C607        C  0.46856565  0.00523113  0.53411511    -0.02400
C608        C  0.49412004  0.02854872  0.52266121     0.07300
C609        C  0.50827364  0.02682557  0.48850039    -0.02500
C610        C  0.49739701  0.00184636  0.46649160    -0.02500
C611        C  0.47160263  0.97848449  0.47739443     0.07400
C612        C  0.45709747  0.98035575  0.51120022    -0.02700
Br613      Br  0.42131164  0.94915856  0.52579433    -0.01300
Br614      Br  0.44929809  0.00758953  0.58088819    -0.01300
Br615      Br  0.51982623  0.99905044  0.42421115    -0.01300
Br616      Br  0.54406121  0.05807288  0.47344373    -0.01300
C617        C  0.59379206  0.13868464  0.86644847    -0.02400
C618        C  0.58397808  0.15129184  0.83902156     0.07300
C619        C  0.57129212  0.16626109  0.85346259    -0.02500
C620        C  0.56753307  0.16780103  0.89508878    -0.02500
C621        C  0.57674042  0.15462658  0.92255498     0.07400
C622        C  0.59035945  0.14051294  0.90814674    -0.02700
Br623      Br  0.60568248  0.12503141  0.94564354    -0.01300
Br624      Br  0.61275575  0.11975699  0.84679409    -0.01300
Br625      Br  0.54883156  0.18710822  0.91439838    -0.01300
Br626      Br  0.55849600  0.18416437  0.81596962    -0.01300
C627        C  0.58723330  0.13586590  0.36699229    -0.02400
C628        C  0.57652039  0.14801199  0.34028270     0.07300
C629        C  0.56353422  0.16248521  0.35555057    -0.02500
C630        C  0.56052011  0.16406893  0.39734964    -0.02500
C631        C  0.57204868  0.15275164  0.42410059     0.07400
C632        C  0.58569573  0.13889469  0.40881165    -0.02700
Br633      Br  0.60369122  0.12546177  0.44496768    -0.01300
Br634      Br  0.60450004  0.11557257  0.34615440    -0.01300
Br635      Br  0.53905696  0.18012034  0.41800745    -0.01300
Br636      Br  0.54955031  0.17985015  0.31912510    -0.01300
C637        C  0.50928233  0.99434169  0.20933631    -0.02400
C638        C  0.53278025  0.01928610  0.22294985     0.07300
C639        C  0.54599232  0.01860065  0.25903623    -0.02500
C640        C  0.53460845  0.99400434  0.28274059    -0.02500
C641        C  0.51019505  0.96974288  0.27032721     0.07400
C642        C  0.49815135  0.96977744  0.23280878    -0.02700
Br643      Br  0.46484683  0.93664173  0.21431119    -0.01300
Br644      Br  0.49049163  0.99364045  0.15992729    -0.01300
Br645      Br  0.55310616  0.99312651  0.33131126    -0.01300
Br646      Br  0.58051899  0.05093815  0.27517653    -0.01300
C647        C  0.50331700  0.02666981  0.98375006    -0.02400
C648        C  0.49158826  0.02862985  0.02040585     0.07300
C649        C  0.46622673  0.00585939  0.03371763    -0.02500
C650        C  0.45296622  0.98094737  0.01091587    -0.02500
C651        C  0.46492494  0.97880638  0.97440592     0.07400
C652        C  0.49008985  0.00202861  0.96079054    -0.02700
Br653      Br  0.50855610  0.99969594  0.91271115    -0.01300
Br654      Br  0.53913214  0.05698541  0.96642574    -0.01300
Br655      Br  0.41827637  0.94992205  0.02973364    -0.01300
Br656      Br  0.44943396  0.00912212  0.08266688    -0.01300
C657        C  0.68307782  0.29543060  0.71023928    -0.02400
C658        C  0.68345812  0.27023532  0.70555275     0.07300
C659        C  0.70893369  0.27091873  0.69919851    -0.02500
C660        C  0.73413316  0.29663958  0.69986163    -0.02500
C661        C  0.73380945  0.32193093  0.70527232     0.07400
C662        C  0.70806898  0.32119455  0.70927365    -0.02700
Br663      Br  0.70666453  0.35552284  0.71108147    -0.01300
Br664      Br  0.64815889  0.29462275  0.71852940    -0.01300
Br665      Br  0.76887926  0.29666217  0.69494887    -0.01300
Br666      Br  0.70918434  0.23679056  0.68695462    -0.01300
C667        C  0.70315393  0.32189703  0.20259317    -0.02400
C668        C  0.72886662  0.32248638  0.20444007     0.07300
C669        C  0.72907448  0.29706545  0.20830495    -0.02500
C670        C  0.70383115  0.27127625  0.20950421    -0.02500
C671        C  0.67806625  0.27071044  0.20847267     0.07400
C672        C  0.67792758  0.29624744  0.20513886    -0.02700
Br673      Br  0.64310554  0.29637797  0.20525814    -0.01300
Br674      Br  0.70248374  0.35633590  0.19533779    -0.01300
Br675      Br  0.70484259  0.23676056  0.21005454    -0.01300
Br676      Br  0.76395993  0.29753449  0.21425028    -0.01300
C677        C  0.86671727  0.41140081  0.54948781    -0.02400
C678        C  0.85317184  0.42034410  0.57648196     0.07300
C679        C  0.83519833  0.42947815  0.56170150    -0.02500
C680        C  0.83130966  0.43031327  0.52003787    -0.02500
C681        C  0.84481009  0.42132531  0.49302003     0.07400
C682        C  0.86183513  0.41105513  0.50789996    -0.02700
Br683      Br  0.87662717  0.39446624  0.47152231    -0.01300
Br684      Br  0.89164260  0.39929092  0.56943318    -0.01300
Br685      Br  0.80836260  0.44484754  0.50007822    -0.01300
Br686      Br  0.81695205  0.44220634  0.59853767    -0.01300
C687        C  0.86642964  0.41916326  0.05156316    -0.02400
C688        C  0.85200380  0.42777236  0.07736310     0.07300
C689        C  0.83634398  0.43921494  0.06119987    -0.02500
C690        C  0.83437773  0.44121699  0.01920372    -0.02500
C691        C  0.84865532  0.43239304  0.99328409     0.07400
C692        C  0.86493008  0.42163470  0.00962525    -0.02700
Br693      Br  0.88426652  0.40909915  0.97458851    -0.01300
Br694      Br  0.88760439  0.40320555  0.07383674    -0.01300
Br695      Br  0.81300466  0.45704710  0.99728036    -0.01300
Br696      Br  0.81874277  0.45335936  0.09679673    -0.01300
C697        C  0.28580356  0.69112762  0.49724464    -0.02400
C698        C  0.26989334  0.67835292  0.46195601     0.07300
C699        C  0.27959553  0.69207796  0.42463742    -0.02500
C700        C  0.30449026  0.71805403  0.42270533    -0.02500
C701        C  0.32101667  0.72979575  0.45750694     0.07400
C702        C  0.31163930  0.71610759  0.49465943    -0.02700
Br703      Br  0.33488825  0.73080363  0.54185571    -0.01300
Br704      Br  0.27209230  0.67613623  0.55031278    -0.01300
Br705      Br  0.31490971  0.73812640  0.37220176    -0.01300
Br706      Br  0.25985014  0.67507253  0.37539289    -0.01300
C707        C  0.98240413  0.45411894  0.65884886    -0.02400
C708        C  0.98118856  0.46671292  0.69529752     0.07300
C709        C  0.00548184  0.49065863  0.70953541    -0.02500
C710        C  0.03002112  0.50260107  0.68652491    -0.02500
C711        C  0.03054198  0.49105465  0.64890091     0.07400
C712        C  0.00691278  0.46652208  0.63545724    -0.02700
Br713      Br  0.00841195  0.44973190  0.58538397    -0.01300
Br714      Br  0.95091846  0.41934112  0.64139294    -0.01300
Br715      Br  0.06232608  0.53658440  0.70531582    -0.01300
Br716      Br  0.00522392  0.50936761  0.75866769    -0.01300
C717        C  0.01768271  0.54550424  0.41123483    -0.02400
C718        C  0.01899667  0.53326635  0.44802049     0.07300
C719        C  0.99459951  0.50942717  0.46237019    -0.02500
C720        C  0.97013994  0.49704880  0.43898196    -0.02500
C721        C  0.96969747  0.50779617  0.40047764     0.07400
C722        C  0.99357669  0.53226566  0.38685941    -0.02700
Br723      Br  0.99334333  0.54776499  0.33492915    -0.01300
Br724      Br  0.04809190  0.58164913  0.39584300    -0.01300
Br725      Br  0.93790594  0.46351195  0.45883148    -0.01300
Br726      Br  0.99439601  0.49194712  0.51295742    -0.01300
C727        C  0.31912516  0.70262021  0.95666850    -0.02400
C728        C  0.31985864  0.72839584  0.96251928     0.07300
C729        C  0.29454916  0.72859216  0.96633096    -0.02500
C730        C  0.26889071  0.70332210  0.96388764    -0.02500
C731        C  0.26831574  0.67777232  0.95707138     0.07400
C732        C  0.29351185  0.67757001  0.95329244    -0.02700
Br733      Br  0.29284573  0.64282936  0.94233074    -0.01300
Br734      Br  0.35322555  0.70116844  0.95528444    -0.01300
Br735      Br  0.23449908  0.70360718  0.97154364    -0.01300
Br736      Br  0.29465478  0.76341438  0.97345545    -0.01300
C737        C  0.01814972  0.46943034  0.16898568    -0.02400
C738        C  0.02624538  0.49316078  0.14425254     0.07300
C739        C  0.00967262  0.50601293  0.14316941    -0.02500
C740        C  0.98490832  0.49479921  0.16554962    -0.02500
C741        C  0.97682834  0.47114746  0.19032598     0.07400
C742        C  0.99352625  0.45853604  0.19216356    -0.02700
Br743      Br  0.98213420  0.42589537  0.22542480    -0.01300
Br744      Br  0.04033928  0.45143184  0.17039057    -0.01300
Br745      Br  0.96278456  0.51304905  0.16383029    -0.01300
Br746      Br  0.02201415  0.54071238  0.11403836    -0.01300
C747        C  0.15421880  0.59753351  0.80240312    -0.02400
C748        C  0.14775234  0.57432848  0.82731449     0.07300
C749        C  0.14365173  0.54913590  0.81011983    -0.02500
C750        C  0.14627549  0.54730225  0.76830418    -0.02500
C751        C  0.15374218  0.57081799  0.74366810     0.07400
C752        C  0.15753156  0.59587764  0.76071159    -0.02700
Br753      Br  0.16593130  0.62750510  0.72658539    -0.01300
Br754      Br  0.15667158  0.63093441  0.82499141    -0.01300
Br755      Br  0.14017592  0.51271848  0.74471852    -0.01300
Br756      Br  0.13560953  0.51740949  0.84388937    -0.01300
C757        C  0.17088246  0.57212576  0.27058919    -0.02400
C758        C  0.15237487  0.57489365  0.24424894     0.07300
C759        C  0.13172399  0.58003764  0.26025085    -0.02500
C760        C  0.12944580  0.58207860  0.30213135    -0.02500
C761        C  0.14789010  0.57928222  0.32839959     0.07400
C762        C  0.16871975  0.57444387  0.31246297    -0.02700
Br763      Br  0.19339408  0.56931814  0.34805197    -0.01300
Br764      Br  0.19817066  0.56331314  0.24978744    -0.01300
Br765      Br  0.10172744  0.58998815  0.32337054    -0.01300
Br766      Br  0.10725010  0.58575251  0.22497820    -0.01300
C767        C  0.01459455  0.50541252  0.91265256    -0.02400
C768        C  0.02247552  0.52868415  0.93798707     0.07300
C769        C  0.00662899  0.54221789  0.93852596    -0.02500
C770        C  0.98291584  0.53249147  0.91370221    -0.02500
C771        C  0.97447160  0.50858467  0.88941720     0.07400
C772        C  0.99045279  0.49507203  0.88909003    -0.02700
Br773      Br  0.97828692  0.46078815  0.85915279    -0.01300
Br774      Br  0.03615973  0.48655340  0.91160762    -0.01300
Br775      Br  0.96283500  0.55266831  0.91151544    -0.01300
Br776      Br  0.01789810  0.57441249  0.97247008    -0.01300
C777        C  0.40806060  0.71953203  0.77141154    -0.02400
C778        C  0.40840745  0.72727408  0.81198618     0.07300
C779        C  0.41239505  0.71155575  0.84255408    -0.02500
C780        C  0.41201806  0.68650940  0.83317038    -0.02500
C781        C  0.41160595  0.67881768  0.79269629     0.07400
C782        C  0.41146009  0.69649830  0.76190963    -0.02700
Br783      Br  0.41852042  0.69088522  0.70677406    -0.01300
Br784      Br  0.40139144  0.73896099  0.72838364    -0.01300
Br785      Br  0.41056585  0.66226099  0.87642901    -0.01300
Br786      Br  0.42084886  0.72501198  0.89736325    -0.01300
C787        C  0.32122723  0.62172053  0.63886446    -0.02400
C788        C  0.32567259  0.59930357  0.62918744     0.07300
C789        C  0.30442095  0.57535679  0.60984985    -0.02500
C790        C  0.27866559  0.57359721  0.60167353    -0.02500
C791        C  0.27412392  0.59570899  0.61254735     0.07400
C792        C  0.29542277  0.61976170  0.63103852    -0.02700
Br793      Br  0.28946004  0.65038538  0.64461359    -0.01300
Br794      Br  0.35109945  0.65606626  0.66043881    -0.01300
Br795      Br  0.24914982  0.54061045  0.57628776    -0.01300
Br796      Br  0.31002861  0.54462028  0.59532149    -0.01300
C797        C  0.37841081  0.69664484  0.31605178    -0.02400
C798        C  0.40093377  0.72315754  0.30523393     0.07300
C799        C  0.42462451  0.72498454  0.28648536    -0.02500
C800        C  0.42612920  0.70052926  0.28003870    -0.02500
C801        C  0.40412143  0.67431237  0.29251256     0.07400
C802        C  0.38007290  0.67232726  0.30978419    -0.02700
Br803      Br  0.34967665  0.63621545  0.32568618    -0.01300
Br804      Br  0.34495025  0.69343369  0.33908791    -0.01300
Br805      Br  0.45827486  0.70280390  0.25389705    -0.01300
Br806      Br  0.45577322  0.76095950  0.27182346    -0.01300
C807        C  0.29634108  0.62471692  0.12526375    -0.02400
C808        C  0.27265740  0.59912571  0.11521039     0.07300
C809        C  0.27463127  0.57470466  0.11172913    -0.02500
C810        C  0.30018025  0.57578282  0.11871850    -0.02500
C811        C  0.32398603  0.60140183  0.12859825     0.07400
C812        C  0.32192515  0.62584396  0.13234133    -0.02700
Br813      Br  0.35421785  0.66096295  0.14675915    -0.01300
Br814      Br  0.29361684  0.65824195  0.12834889    -0.01300
Br815      Br  0.30217316  0.54181713  0.11714635    -0.01300
Br816      Br  0.24231460  0.53982908  0.09660572    -0.01300
C817        C  0.43875375  0.60054565  0.97939252    -0.02400
C818        C  0.41870163  0.57492939  0.99664747     0.07300
C819        C  0.40384505  0.55120080  0.97206776    -0.02500
C820        C  0.40935900  0.55292153  0.93053449    -0.02500
C821        C  0.43035656  0.57819396  0.91352119     0.07400
C822        C  0.44484373  0.60210603  0.93801338    -0.02700
Br823      Br  0.47400824  0.63667888  0.91541863    -0.01300
Br824      Br  0.45855903  0.63330285  0.01275928    -0.01300
Br825      Br  0.38680171  0.52108652  0.89658629    -0.01300
Br826      Br  0.37505406  0.51659449  0.99510446    -0.01300
C827        C  0.43745160  0.59758681  0.43787570    -0.02400
C828        C  0.42439289  0.57274898  0.41486552     0.07300
C829        C  0.40734454  0.54682369  0.43428921    -0.02500
C830        C  0.40374505  0.54575393  0.47631047    -0.02500
C831        C  0.41683933  0.57056043  0.49917073     0.07400
C832        C  0.43338567  0.59651439  0.47977476    -0.02700
Br833      Br  0.45150464  0.63067181  0.51074728    -0.01300
Br834      Br  0.46246797  0.63309469  0.41268294    -0.01300
Br835      Br  0.37948847  0.51038363  0.50235521    -0.01300
Br836      Br  0.38752614  0.51275993  0.40343041    -0.01300
C837        C  0.62310594  0.32621306  0.05288903    -0.02400
C838        C  0.59827560  0.32434587  0.03882218     0.07300
C839        C  0.57557989  0.29809601  0.02811905    -0.02500
C840        C  0.57689709  0.27352184  0.03444932    -0.02500
C841        C  0.60103311  0.27523867  0.05134027     0.07400
C842        C  0.62436792  0.30168888  0.05967913    -0.02700
Br843      Br  0.65814655  0.30430691  0.08053032    -0.01300
Br844      Br  0.65530155  0.36237252  0.06320130    -0.01300
Br845      Br  0.54499810  0.23752794  0.02226473    -0.01300
Br846      Br  0.54306279  0.29596913  0.00343451    -0.01300
C847        C  0.70120998  0.37722089  0.85484504    -0.02400
C848        C  0.72745326  0.40092862  0.86284652     0.07300
C849        C  0.72895513  0.42478861  0.88079780    -0.02500
C850        C  0.70434464  0.42533925  0.88895398    -0.02500
C851        C  0.67823594  0.40226084  0.87878276     0.07400
C852        C  0.67665240  0.37789895  0.86290147    -0.02700
Br853      Br  0.64077550  0.34492603  0.85476530    -0.01300
Br854      Br  0.69885060  0.34314510  0.83515513    -0.01300
Br855      Br  0.70625403  0.45744178  0.91535445    -0.01300
Br856      Br  0.76456681  0.45705172  0.89334614    -0.01300
C857        C  0.53904038  0.53255095  0.85787834    -0.02400
C858        C  0.53800632  0.50759708  0.84574344     0.07300
C859        C  0.52482821  0.49486449  0.80918298    -0.02500
C860        C  0.51207962  0.50641591  0.78546775    -0.02500
C861        C  0.51260191  0.53120509  0.79780890     0.07400
C862        C  0.52657084  0.54447127  0.83387848    -0.02700
Br863      Br  0.52909557  0.57922946  0.85044033    -0.01300
Br864      Br  0.55785820  0.55051016  0.90707440    -0.01300
Br865      Br  0.49140889  0.48603355  0.73828307    -0.01300
Br866      Br  0.52175947  0.45980778  0.79291340    -0.01300
C867        C  0.46519701  0.45949364  0.04939905    -0.02400
C868        C  0.49398573  0.47033372  0.05513827     0.07300
C869        C  0.50831249  0.49193659  0.08343885    -0.02500
C870        C  0.49403994  0.50247200  0.10593614    -0.02500
C871        C  0.46536951  0.49260290  0.09893653     0.07400
C872        C  0.45104598  0.47095638  0.07052309    -0.02700
Br873      Br  0.41179855  0.45615385  0.06134291    -0.01300
Br874      Br  0.44495919  0.42800294  0.01404400    -0.01300
Br875      Br  0.51494848  0.53181367  0.14463341    -0.01300
Br876      Br  0.54830483  0.50900355  0.08928367    -0.01300
C877        C  0.60209923  0.28673232  0.52028156    -0.02400
C878        C  0.59460168  0.27378277  0.55826464     0.07300
C879        C  0.58442354  0.28481659  0.58790458    -0.02500
C880        C  0.58432410  0.31000632  0.58116296    -0.02500
C881        C  0.59237449  0.32355431  0.54324485     0.07400
C882        C  0.59986787  0.31071560  0.51216172    -0.02700
Br883      Br  0.60527083  0.32399091  0.45709039    -0.01300
Br884      Br  0.61686817  0.27257020  0.47982801    -0.01300
Br885      Br  0.57398775  0.32572977  0.62549846    -0.01300
Br886      Br  0.56921611  0.26470912  0.63785864    -0.01300
C887        C  0.67463769  0.38349369  0.35830064    -0.02400
C888        C  0.67760868  0.40351658  0.38689185     0.07300
C889        C  0.70351194  0.42028036  0.40591130    -0.02500
C890        C  0.72671810  0.41778183  0.39522517    -0.02500
C891        C  0.72390430  0.39776708  0.36634338     0.07400
C892        C  0.69748230  0.38013147  0.34869771    -0.02700
Br893      Br  0.69174346  0.35019228  0.31264981    -0.01300
Br894      Br  0.63883431  0.35972059  0.33359435    -0.01300
Br895      Br  0.76249083  0.44336013  0.41848525    -0.01300
Br896      Br  0.70754360  0.44760897  0.44571100    -0.01300
C897        C  0.59635560  0.43404519  0.68016781    -0.02400
C898        C  0.56892801  0.42340008  0.66588858     0.07300
C899        C  0.54668550  0.41349949  0.69342426    -0.02500
C900        C  0.55182585  0.41397946  0.73503097    -0.02500
C901        C  0.57936825  0.42564203  0.74944028     0.07400
C902        C  0.60160462  0.43544917  0.72181550    -0.02700
Br903      Br  0.63937096  0.45144325  0.74099578    -0.01300
Br904      Br  0.62689936  0.44742326  0.64255708    -0.01300
Br905      Br  0.52097355  0.39624604  0.77201396    -0.01300
Br906      Br  0.50910562  0.39841611  0.67394446    -0.01300
C907        C  0.55572329  0.41159923  0.23371655    -0.02400
C908        C  0.58282133  0.42498180  0.25008376     0.07300
C909        C  0.60609667  0.43600694  0.22418657    -0.02500
C910        C  0.60223857  0.43393206  0.18218048    -0.02500
C911        C  0.57518607  0.42187256  0.16597864     0.07400
C912        C  0.55194174  0.41042245  0.19176442    -0.02700
Br913      Br  0.51489900  0.39236092  0.16934583    -0.01300
Br914      Br  0.52373497  0.39359944  0.26871230    -0.01300
Br915      Br  0.63396973  0.44785578  0.14670230    -0.01300
Br916      Br  0.64326418  0.45531857  0.24614550    -0.01300
C917        C  0.53616542  0.52930468  0.35149557    -0.02400
C918        C  0.53042578  0.50198196  0.34258264     0.07300
C919        C  0.51198302  0.48692048  0.31107757    -0.02500
C920        C  0.49920237  0.49904333  0.28865502    -0.02500
C921        C  0.50496926  0.52649665  0.29735190     0.07400
C922        C  0.52350927  0.54161476  0.32885252    -0.02700
Br923      Br  0.53178451  0.57922434  0.34073279    -0.01300
Br924      Br  0.56141662  0.54969372  0.39462839    -0.01300
Br925      Br  0.47166077  0.47676374  0.24859604    -0.01300
Br926      Br  0.50253472  0.44869614  0.30052519    -0.01300
C927        C  0.47616843  0.50353596  0.55923740    -0.02400
C928        C  0.46078489  0.48953579  0.59389782     0.07300
C929        C  0.45583146  0.46246246  0.60300668    -0.02500
C930        C  0.46683992  0.44970388  0.57792445    -0.02500
C931        C  0.48329162  0.46425842  0.54422092     0.07400
C932        C  0.48731307  0.49097874  0.53443444    -0.02700
Br933      Br  0.51024644  0.51191912  0.48913664    -0.01300
Br934      Br  0.48417950  0.54128529  0.54750013    -0.01300
Br935      Br  0.45891750  0.41205054  0.58901839    -0.01300
Br936      Br  0.43416233  0.44307023  0.64972411    -0.01300
loop_ 
_geom_bond_atom_site_label_1 
_geom_bond_atom_site_label_2 
_geom_bond_distance 
_geom_bond_site_symmetry_2 
_ccdc_geom_bond_type 
O1           Mg3   2.126       .  S
O1           Mg9   2.141       .  S
O1           C36   1.239       .  S
C2           O15   1.235       .  S
C2           O39   1.266       .  A
C2           H41   1.081       .  S
Mg3          O32   2.151       .  S
Mg3          O47   2.331       .  S
Mg3          O43   2.267       .  S
Mg3          O14   2.322       .  S
O4          Mg46   2.142       .  S
O4          Mg29   2.112       .  S
O4           C25   1.234       .  S
O5           C36   1.272       .  A
O5          Mg29   2.292       .  S
C6            O8   1.269       .  A
C6           O20   1.275       .  A
C6          C918   1.475       .  S
O7           C35   1.274       .  A
O7           Mg9   2.313       .  S
O8          Mg40   2.252       .  S
Mg9          O15   2.088       .  S
Mg9          O23   2.196       .  S
Mg9          O11   2.274       .  S
C10          O48   1.276       .  A
C10          O16   1.275       .  A
C10         C931   1.479       .  S
O11          C18   1.269       .  A
H12          C25   1.081       .  S
C13          O27   1.237       .  S
C13          O28   1.272       .  A
C13          H38   1.080       .  S
O14          C37   1.273       .  A
O15         Mg29   2.141       .  S
O16         Mg46   2.293       .  S
C17          O30   1.278       .  A
C17          O22   1.278       .  A
C17         C898   1.479       .  S
C18          O45   1.273       .  A
C18         C881   1.501       .  S
Mg19         O26   2.172       .  S
Mg19         O27   2.161       .  S
Mg19         O20   2.317       .  S
Mg19         O21   2.279       .  S
Mg19         O48   2.275       .  S
O21          C25   1.266       .  A
O22         Mg29   2.309       .  S
O23          C42   1.263       .  A
O24          C44   1.275       .  A
O24         Mg40   2.317       .  S
O26         Mg40   2.150       .  S
O26          C37   1.236       .  S
O27         Mg46   2.167       .  S
O28         Mg40   2.310       .  S
Mg29         O45   2.276       .  S
O30         Mg46   2.299       .  S
H31          C36   1.082       .  S
O32         Mg40   2.148       .  S
O32          C35   1.239       .  S
H33          C35   1.081       .  S
H34          C37   1.082       .  S
O39         Mg46   2.273       .  S
C42          O47   1.277       .  A
C42         C888   1.469       .  S
O43          C44   1.271       .  A
C44         C908   1.479       .  S
O49         Mg51   2.124       .  S
O49         Mg57   2.140       .  S
O49          C84   1.239       .  S
C50          O63   1.235       .  S
C50          O87   1.267       .  A
C50          H89   1.081       .  S
Mg51         O80   2.148       .  S
Mg51         O95   2.352       .  S
Mg51         O91   2.274       .  S
Mg51         O62   2.328       .  S
O52         Mg94   2.149       .  S
O52         Mg77   2.136       .  S
O52          C73   1.234       .  S
O53          C84   1.271       .  A
O53         Mg77   2.292   1_556  S
C54          O56   1.268       .  A
C54          O68   1.278       .  A
C54         C858   1.482       .  S
O55          C83   1.272       .  A
O55         Mg57   2.300       .  S
O56         Mg88   2.232       .  S
Mg57         O63   2.092   1_556  S
Mg57         O71   2.189       .  S
Mg57         O59   2.254   1_556  S
C58          O96   1.278   1_554  A
C58          O64   1.277       .  A
C58         C868   1.488       .  S
O59          C66   1.266       .  A
H60          C73   1.081       .  S
C61          O75   1.237       .  S
C61          O76   1.272       .  A
C61          H86   1.080       .  S
O62          C85   1.275       .  A
O63         Mg77   2.138       .  S
O64         Mg94   2.306       .  S
C65          O78   1.277       .  A
C65          O70   1.276       .  A
C65         C911   1.474       .  S
C66          O93   1.275       .  A
C66         C838   1.471       .  S
Mg67         O74   2.183       .  S
Mg67         O75   2.160       .  S
Mg67         O68   2.336       .  S
Mg67         O69   2.292       .  S
Mg67         O96   2.302       .  S
O69          C73   1.268   1_556  A
O70         Mg77   2.304       .  S
O71          C90   1.261       .  A
O72          C92   1.275       .  A
O72         Mg88   2.322       .  S
O74         Mg88   2.157       .  S
O74          C85   1.238       .  S
O75         Mg94   2.167   1_556  S
O76         Mg88   2.307       .  S
Mg77         O93   2.293       .  S
O78         Mg94   2.286       .  S
H79          C84   1.081       .  S
O80         Mg88   2.136       .  S
O80          C83   1.238       .  S
H81          C83   1.081       .  S
H82          C85   1.081       .  S
O87         Mg94   2.277       .  S
C90          O95   1.280       .  A
C90         C851   1.466       .  S
O91          C92   1.272       .  A
C92         C901   1.482       .  S
O97         Mg99   2.136       .  S
O97        Mg105   2.132       .  S
O97         C132   1.239       .  S
C98         O111   1.234       .  S
C98         O135   1.266       .  A
C98         H137   1.081       .  S
Mg99        O128   2.165       .  S
Mg99        O143   2.356       .  S
Mg99        O139   2.270       .  S
Mg99        O110   2.318       .  S
O100       Mg142   2.151       .  S
O100       Mg125   2.122       .  S
O100        C121   1.236       .  S
O101        C132   1.273       .  A
O101       Mg125   2.301       .  S
C102        O104   1.274       .  A
C102        O116   1.273       .  A
C102        C871   1.495       .  S
O103        C131   1.275       .  A
O103       Mg105   2.315       .  S
O104       Mg136   2.298       .  S
Mg105       O111   2.100       .  S
Mg105       O119   2.205       .  S
Mg105       O107   2.263       .  S
C106        O144   1.273       .  A
C106        O112   1.273       .  A
C106        C921   1.479       .  S
O107        C114   1.268       .  A
H108        C121   1.081       .  S
C109        O123   1.237       .  S
C109        O124   1.273       .  A
C109        H134   1.080       .  S
O110        C133   1.273       .  A
O111       Mg125   2.141       .  S
O112       Mg142   2.296       .  S
C113        O126   1.275       .  A
C113        O118   1.277       .  A
C113        C828   1.483       .  S
C114        O141   1.273       .  A
C114        C801   1.469       .  S
Mg115       O122   2.169       .  S
Mg115       O123   2.147       .  S
Mg115       O116   2.313       .  S
Mg115       O117   2.286       .  S
Mg115       O144   2.269       .  S
O117        C121   1.268       .  A
O118       Mg125   2.309       .  S
O119        C138   1.262       .  A
O120        C140   1.276       .  A
O120       Mg136   2.310       .  S
O122       Mg136   2.142       .  S
O122        C133   1.236       .  S
O123       Mg142   2.156       .  S
O124       Mg136   2.314       .  S
Mg125       O141   2.281       .  S
O126       Mg142   2.273       .  S
H127        C132   1.081       .  S
O128       Mg136   2.166       .  S
O128        C131   1.239       .  S
H129        C131   1.081       .  S
H130        C133   1.082       .  S
O135       Mg142   2.279       .  S
C138        O143   1.280       .  A
C138        C811   1.473       .  S
O139        C140   1.273       .  A
C140        C818   1.477   1_554  S
O145       Mg147   2.124       .  S
O145       Mg153   2.141       .  S
O145        C180   1.239       .  S
C146        O159   1.235       .  S
C146        O183   1.266       .  A
C146        H185   1.081       .  S
Mg147       O176   2.151       .  S
Mg147       O191   2.330       .  S
Mg147       O187   2.255       .  S
Mg147       O158   2.319       .  S
O148       Mg190   2.151       .  S
O148       Mg173   2.124       .  S
O148        C169   1.234       .  S
O149        C180   1.272       .  A
O149       Mg173   2.293       .  S
C150        O152   1.269       .  A
C150        O164   1.278       .  A
C150        C928   1.476       .  S
O151        C179   1.272       .  A
O151       Mg153   2.305       .  S
O152       Mg184   2.232       .  S
Mg153       O159   2.097       .  S
Mg153       O167   2.219       .  S
Mg153       O155   2.286       .  S
C154        O192   1.277       .  A
C154        O160   1.275       .  A
C154        C861   1.486       .  S
O155        C162   1.273       .  A
H156        C169   1.081       .  S
C157        O171   1.236       .  S
C157        O172   1.270       .  A
C157        H182   1.081       .  S
O158        C181   1.274       .  A
O159       Mg173   2.140       .  S
O160       Mg190   2.290       .  S
C161        O174   1.276       .  A
C161        O166   1.275       .  A
C161        C821   1.479       .  S
C162        O189   1.272       .  A
C162        C781   1.484       .  S
Mg163       O170   2.167       .  S
Mg163       O171   2.162       .  S
Mg163       O164   2.338       .  S
Mg163       O165   2.283       .  S
Mg163       O192   2.279       .  S
O165        C169   1.267       .  A
O166       Mg173   2.297       .  S
O167        C186   1.267       .  A
O168        C188   1.274       .  A
O168       Mg184   2.308       .  S
O170       Mg184   2.155       .  S
O170        C181   1.238       .  S
O171       Mg190   2.154       .  S
O172       Mg184   2.301       .  S
Mg173       O189   2.265       .  S
O174       Mg190   2.281       .  S
H175        C180   1.082       .  S
O176       Mg184   2.137       .  S
O176        C179   1.238       .  S
H177        C179   1.081       .  S
H178        C181   1.082       .  S
O183       Mg190   2.275       .  S
C186        O191   1.277       .  A
C186        C788   1.477       .  S
O187        C188   1.270       .  A
C188        C831   1.478       .  S
O193       Mg195   2.122       .  S
O193       Mg201   2.130       .  S
O193        C228   1.239       .  S
C194        O207   1.235       .  S
C194        O231   1.265       .  A
C194        H233   1.081       .  S
Mg195       O224   2.160       .  S
Mg195       O239   2.346       .  S
Mg195       O235   2.256       .  S
Mg195       O206   2.321       .  S
O196       Mg238   2.150       .  S
O196       Mg221   2.127       .  S
O196        C217   1.235       .  S
O197        C228   1.272       .  A
O197       Mg221   2.294   1_554  S
C198        O200   1.270       .  A
C198        O212   1.276       .  A
C198        C738   1.482       .  S
O199        C227   1.275       .  A
O199       Mg201   2.310       .  S
O200       Mg232   2.261       .  S
Mg201       O207   2.085   1_554  S
Mg201       O215   2.202       .  S
Mg201       O203   2.259   1_554  S
C202        O240   1.275   1_556  A
C202        O208   1.272       .  A
C202        C768   1.475       .  S
O203        C210   1.269       .  A
H204        C217   1.081       .  S
C205        O219   1.236       .  S
C205        O220   1.272       .  A
C205        H230   1.080       .  S
O206        C229   1.273       .  A
O207       Mg221   2.142       .  S
O208       Mg238   2.273       .  S
C209        O222   1.274       .  A
C209        O214   1.279       .  A
C209        C748   1.477       .  S
C210        O237   1.276       .  A
C210        C731   1.477       .  S
Mg211       O218   2.171       .  S
Mg211       O219   2.148       .  S
Mg211       O212   2.318       .  S
Mg211       O213   2.290       .  S
Mg211       O240   2.293       .  S
O213        C217   1.269   1_554  A
O214       Mg221   2.314       .  S
O215        C234   1.262       .  A
O216        C236   1.275       .  A
O216       Mg232   2.308       .  S
O218       Mg232   2.153       .  S
O218        C229   1.236       .  S
O219       Mg238   2.155   1_554  S
O220       Mg232   2.310       .  S
Mg221       O237   2.300       .  S
O222       Mg238   2.264       .  S
H223        C228   1.081       .  S
O224       Mg232   2.151       .  S
O224        C227   1.240       .  S
H225        C227   1.081       .  S
H226        C229   1.084       .  S
O231       Mg238   2.270       .  S
C234        O239   1.278       .  A
C234        C808   1.468       .  S
O235        C236   1.271       .  A
C236        C758   1.483       .  S
O241       Mg243   2.116       .  S
O241       Mg249   2.145       .  S
O241        C276   1.240       .  S
C242        O255   1.235       .  S
C242        O279   1.267       .  A
C242        H281   1.081       .  S
Mg243       O272   2.155       .  S
Mg243       O287   2.335       .  S
Mg243       O283   2.261       .  S
Mg243       O254   2.316       .  S
O244       Mg286   2.151       .  S
O244       Mg269   2.134       .  S
O244        C265   1.234       .  S
O245        C276   1.272       .  A
O245       Mg269   2.290       .  S
C246        O248   1.267       .  A
C246        O260   1.276       .  A
C246        C711   1.475       .  S
O247        C275   1.271       .  A
O247       Mg249   2.294       .  S
O248       Mg280   2.223       .  S
Mg249       O255   2.098       .  S
Mg249       O263   2.210       .  S
Mg249       O251   2.245       .  S
C250        O288   1.276       .  A
C250        O256   1.279       .  A
C250        C718   1.497       .  S
O251        C258   1.266       .  A
H252        C265   1.081       .  S
C253        O267   1.237       .  S
C253        O268   1.272       .  A
C253        H278   1.080       .  S
O254        C277   1.272       .  A
O255       Mg269   2.145       .  S
O256       Mg286   2.326       .  S
C257        O270   1.278       .  A
C257        O262   1.280       .  A
C257        C761   1.481       .  S
C258        O285   1.277       .  A
C258        C698   1.493       .  S
Mg259       O266   2.169       .  S
Mg259       O267   2.162       .  S
Mg259       O260   2.323       .  S
Mg259       O261   2.285       .  S
Mg259       O288   2.283       .  S
O261        C265   1.267       .  A
O262       Mg269   2.320       .  S
O263        C282   1.265       .  A
O264        C284   1.274       .  A
O264       Mg280   2.304       .  S
O266       Mg280   2.159       .  S
O266        C277   1.236       .  S
O267       Mg286   2.158       .  S
O268       Mg280   2.302       .  S
Mg269       O285   2.307       .  S
O270       Mg286   2.280       .  S
H271        C276   1.082       .  S
O272       Mg280   2.126       .  S
O272        C275   1.238       .  S
H273        C275   1.081       .  S
H274        C277   1.084       .  S
O279       Mg286   2.279       .  S
C282        O287   1.278       .  A
C282        C791   1.467       .  S
O283        C284   1.271       .  A
C284        C751   1.474       .  S
O289       Mg291   2.120       .  S
O289       Mg297   2.142       .  S
O289        C324   1.238       .  S
C290        O303   1.236       .  S
C290        O327   1.267       .  A
C290        H329   1.081       .  S
Mg291       O320   2.159       .  S
Mg291       O335   2.333       .  S
Mg291       O331   2.262       .  S
Mg291       O302   2.317       .  S
O292       Mg334   2.148       .  S
O292       Mg317   2.143       .  S
O292        C313   1.235       .  S
O293        C324   1.271       .  A
O293       Mg317   2.293       .  S
C294        O296   1.271       .  A
C294        O308   1.279       .  A
C294        C721   1.492       .  S
O295        C323   1.273       .  A
O295       Mg297   2.301       .  S
O296       Mg328   2.253       .  S
Mg297       O303   2.090       .  S
Mg297       O311   2.194       .  S
Mg297       O299   2.266       .  S
C298        O336   1.276       .  A
C298        O304   1.275       .  A
C298        C741   1.478       .  S
O299        C306   1.269       .  A
H300        C313   1.081       .  S
C301        O315   1.236       .  S
C301        O316   1.271       .  A
C301        H326   1.080       .  S
O302        C325   1.273       .  A
O303       Mg317   2.138       .  S
O304       Mg334   2.291       .  S
C305        O318   1.274       .  A
C305        O310   1.278       .  A
C305        C688   1.474       .  S
C306        O333   1.278       .  A
C306        C668   1.484       .  S
Mg307       O314   2.165       .  S
Mg307       O315   2.159       .  S
Mg307       O308   2.348       .  S
Mg307       O309   2.298       .  S
Mg307       O336   2.288       .  S
O309        C313   1.269       .  A
O310       Mg317   2.318       .  S
O311        C330   1.263       .  A
O312        C332   1.275       .  A
O312       Mg328   2.307       .  S
O314       Mg328   2.158       .  S
O314        C325   1.237       .  S
O315       Mg334   2.161       .  S
O316       Mg328   2.301       .  S
Mg317       O333   2.314       .  S
O318       Mg334   2.270       .  S
H319        C324   1.081       .  S
O320       Mg328   2.146       .  S
O320        C323   1.239       .  S
H321        C323   1.082       .  S
H322        C325   1.083       .  S
O327       Mg334   2.278       .  S
C330        O335   1.278       .  A
C330        C891   1.481       .  S
O331        C332   1.271       .  A
C332        C681   1.475       .  S
O337       Mg339   2.137       .  S
O337       Mg345   2.133       .  S
O337        C372   1.240       .  S
C338        O351   1.234       .  S
C338        O375   1.266       .  A
C338        H377   1.081       .  S
Mg339       O368   2.162       .  S
Mg339       O383   2.324       .  S
Mg339       O379   2.264       .  S
Mg339       O350   2.309       .  S
O340       Mg382   2.157       .  S
O340       Mg365   2.121       .  S
O340        C361   1.236       .  S
O341        C372   1.274       .  A
O341       Mg365   2.307       .  S
C342        O344   1.270       .  A
C342        O356   1.274       .  A
C342        C771   1.480       .  S
O343        C371   1.274       .  A
O343       Mg345   2.308       .  S
O344       Mg376   2.261       .  S
Mg345       O351   2.102       .  S
Mg345       O359   2.215       .  S
Mg345       O347   2.269       .  S
C346        O384   1.272       .  A
C346        O352   1.274       .  A
C346        C708   1.486       .  S
O347        C354   1.270       .  A
H348        C361   1.081       .  S
C349        O363   1.238       .  S
C349        O364   1.273       .  A
C349        H374   1.079       .  S
O350        C373   1.270       .  A
O351       Mg365   2.136       .  S
O352       Mg382   2.294       .  S
C353        O366   1.275       .  A
C353        O358   1.277       .  A
C353        C678   1.474       .  S
C354        O381   1.272       .  A
C354        C661   1.480       .  S
Mg355       O362   2.155       .  S
Mg355       O363   2.152       .  S
Mg355       O356   2.309       .  S
Mg355       O357   2.282       .  S
Mg355       O384   2.261       .  S
O357        C361   1.268       .  A
O358       Mg365   2.304       .  S
O359        C378   1.265       .  A
O360        C380   1.276       .  A
O360       Mg376   2.316       .  S
O362       Mg376   2.142       .  S
O362        C373   1.235       .  S
O363       Mg382   2.153       .  S
O364       Mg376   2.313       .  S
Mg365       O381   2.280       .  S
O366       Mg382   2.279       .  S
H367        C372   1.081       .  S
O368       Mg376   2.147       .  S
O368        C371   1.239       .  S
H369        C371   1.081       .  S
H370        C373   1.082       .  S
O375       Mg382   2.280       .  S
C378        O383   1.276       .  A
C378        C848   1.474       .  S
O379        C380   1.272       .  A
C380        C691   1.479       .  S
O385       Mg387   2.127       .  S
O385       Mg393   2.135       .  S
O385        C420   1.240       .  S
C386        O399   1.235       .  S
C386        O423   1.267       .  A
C386        H425   1.081       .  S
Mg387       O416   2.150       .  S
Mg387       O431   2.330       .  S
Mg387       O427   2.258   1_554  S
Mg387       O398   2.315       .  S
O388       Mg430   2.156       .  S
O388       Mg413   2.141       .  S
O388        C409   1.235       .  S
O389        C420   1.273       .  A
O389       Mg413   2.300       .  S
C390        O392   1.269       .  A
C390        O404   1.277       .  A
C390        C648   1.480       .  S
O391        C419   1.273       .  A
O391       Mg393   2.300       .  S
O392       Mg424   2.236       .  S
Mg393       O399   2.101       .  S
Mg393       O407   2.208       .  S
Mg393       O395   2.250       .  S
C394        O432   1.275       .  A
C394        O400   1.278       .  A
C394        C638   1.493       .  S
O395        C402   1.267       .  A
H396        C409   1.082       .  S
C397        O411   1.238       .  S
C397        O412   1.273       .  A
C397        H422   1.082       .  S
O398        C421   1.272       .  A
O399       Mg413   2.138       .  S
O400       Mg430   2.315       .  S
C401        O414   1.277       .  A
C401        O406   1.280       .  A
C401        C628   1.477       .  S
C402        O429   1.278       .  A
C402        C671   1.487       .  S
Mg403       O410   2.166       .  S
Mg403       O411   2.164       .  S
Mg403       O404   2.333       .  S
Mg403       O405   2.288       .  S
Mg403       O432   2.278       .  S
O405        C409   1.268       .  A
O406       Mg413   2.325       .  S
O407        C426   1.264       .  A
O408        C428   1.278       .  A
O408       Mg424   2.335   1_556  S
O410       Mg424   2.151       .  S
O410        C421   1.236       .  S
O411       Mg430   2.168       .  S
O412       Mg424   2.311       .  S
Mg413       O429   2.321       .  S
O414       Mg430   2.285       .  S
H415        C420   1.081       .  S
O416       Mg424   2.133       .  S
O416        C419   1.239       .  S
H417        C419   1.081       .  S
H418        C421   1.083       .  S
O423       Mg430   2.281       .  S
C426        O431   1.276       .  A
C426        C841   1.473       .  S
O427        C428   1.271       .  A
C428        C621   1.480       .  S
O433       Mg435   2.128       .  S
O433       Mg441   2.115       .  S
O433        C468   1.240       .  S
C434        O447   1.235       .  S
C434        O471   1.267       .  A
C434        H473   1.081       .  S
Mg435       O464   2.135       .  S
Mg435       O479   2.370       .  S
Mg435       O475   2.265       .  S
Mg435       O446   2.333       .  S
O436       Mg478   2.142       .  S
O436       Mg461   2.125       .  S
O436        C457   1.234       .  S
O437        C468   1.274       .  A
O437       Mg461   2.304       .  S
C438        O440   1.268       .  A
C438        O452   1.275       .  A
C438        C608   1.479       .  S
O439        C467   1.274       .  A
O439       Mg441   2.316       .  S
O440       Mg472   2.240       .  S
Mg441       O447   2.103       .  S
Mg441       O455   2.220       .  S
Mg441       O443   2.245       .  S
C442        O480   1.275       .  A
C442        O448   1.274       .  A
C442        C598   1.473       .  S
O443        C450   1.267       .  A
H444        C457   1.081       .  S
C445        O459   1.236       .  S
C445        O460   1.271       .  A
C445        H470   1.081       .  S
O446        C469   1.276       .  A
O447       Mg461   2.145       .  S
O448       Mg478   2.291       .  S
C449        O462   1.275       .  A
C449        O454   1.279       .  A
C449        C618   1.478       .  S
C450        O477   1.274       .  A
C450        C658   1.471       .  S
Mg451       O458   2.180       .  S
Mg451       O459   2.154       .  S
Mg451       O452   2.325       .  S
Mg451       O453   2.289       .  S
Mg451       O480   2.282       .  S
O453        C457   1.268       .  A
O454       Mg461   2.325       .  S
O455        C474   1.263       .  A
O456        C476   1.274       .  A
O456       Mg472   2.313       .  S
O458       Mg472   2.154       .  S
O458        C469   1.239       .  S
O459       Mg478   2.161       .  S
O460       Mg472   2.307       .  S
Mg461       O477   2.287       .  S
O462       Mg478   2.281       .  S
H463        C468   1.082       .  S
O464       Mg472   2.141       .  S
O464        C467   1.239       .  S
H465        C467   1.081       .  S
H466        C469   1.083       .  S
O471       Mg478   2.278       .  S
C474        O479   1.280       .  A
C474        C878   1.488       .  S
O475        C476   1.271       .  A
C476        C631   1.477       .  S
O481       Mg483   2.113       .  S
O481       Mg489   2.136       .  S
O481        C516   1.239       .  S
C482        O495   1.235       .  S
C482        O519   1.267       .  A
C482        H521   1.081       .  S
Mg483       O512   2.154       .  S
Mg483       O527   2.334       .  S
Mg483       O523   2.250       .  S
Mg483       O494   2.321       .  S
O484       Mg526   2.144       .  S
O484       Mg509   2.126       .  S
O484        C505   1.233       .  S
O485        C516   1.271       .  A
O485       Mg509   2.287       .  S
C486        O488   1.268       .  A
C486        O500   1.280       .  A
C486        C641   1.487       .  S
O487        C515   1.273       .  A
O487       Mg489   2.302       .  S
O488       Mg520   2.237       .  S
Mg489       O495   2.095       .  S
Mg489       O503   2.203       .  S
Mg489       O491   2.251       .  S
C490        O528   1.277       .  A
C490        O496   1.276       .  A
C490        C611   1.485       .  S
O491        C498   1.267       .  A
H492        C505   1.081       .  S
C493        O507   1.238       .  S
C493        O508   1.273       .  A
C493        H518   1.079       .  S
O494        C517   1.273       .  A
O495       Mg509   2.140       .  S
O496       Mg526   2.303       .  S
C497        O510   1.278       .  A
C497        O502   1.278       .  A
C497        C578   1.475       .  S
C498        O525   1.276       .  A
C498        C701   1.482       .  S
Mg499       O506   2.167       .  S
Mg499       O507   2.168       .  S
Mg499       O500   2.348       .  S
Mg499       O501   2.285       .  S
Mg499       O528   2.278       .  S
O501        C505   1.267       .  A
O502       Mg509   2.308       .  S
O503        C522   1.263       .  A
O504        C524   1.276       .  A
O504       Mg520   2.321       .  S
O506       Mg520   2.151       .  S
O506        C517   1.236       .  S
O507       Mg526   2.176       .  S
O508       Mg520   2.311       .  S
Mg509       O525   2.301       .  S
O510       Mg526   2.287       .  S
H511        C516   1.083       .  S
O512       Mg520   2.136       .  S
O512        C515   1.239       .  S
H513        C515   1.083       .  S
H514        C517   1.083       .  S
O519       Mg526   2.277       .  S
C522        O527   1.277       .  A
C522        C798   1.475       .  S
O523        C524   1.270       .  A
C524        C591   1.482       .  S
O529       Mg531   2.134       .  S
O529       Mg537   2.105       .  S
O529        C564   1.240       .  S
C530        O543   1.235       .  S
C530        O567   1.267       .  A
C530        H569   1.081       .  S
Mg531       O560   2.140       .  S
Mg531       O575   2.354       .  S
Mg531       O571   2.253       .  S
Mg531       O542   2.322       .  S
O532       Mg574   2.147       .  S
O532       Mg557   2.132       .  S
O532        C553   1.234       .  S
O533        C564   1.274       .  A
O533       Mg557   2.310       .  S
C534        O536   1.271       .  A
C534        O548   1.277       .  A
C534        C601   1.483       .  S
O535        C563   1.276       .  A
O535       Mg537   2.327       .  S
O536       Mg568   2.262       .  S
Mg537       O543   2.105       .  S
Mg537       O551   2.228       .  S
Mg537       O539   2.257       .  S
C538        O576   1.275       .  A
C538        O544   1.275       .  A
C538        C651   1.487       .  S
O539        C546   1.268       .  A
H540        C553   1.081       .  S
C541        O555   1.235       .  S
C541        O556   1.270       .  A
C541        H566   1.079       .  S
O542        C565   1.274       .  A
O543       Mg557   2.142       .  S
O544       Mg574   2.295       .  S
C545        O558   1.275       .  A
C545        O550   1.280       .  A
C545        C588   1.487       .  S
C546        O573   1.276       .  A
C546        C728   1.484       .  S
Mg547       O554   2.168       .  S
Mg547       O555   2.161       .  S
Mg547       O548   2.320       .  S
Mg547       O549   2.284       .  S
Mg547       O576   2.278       .  S
O549        C553   1.267       .  A
O550       Mg557   2.325   1_554  S
O551        C570   1.262       .  A
O552        C572   1.275       .  A
O552       Mg568   2.309       .  S
O554       Mg568   2.161       .  S
O554        C565   1.237       .  S
O555       Mg574   2.158       .  S
O556       Mg568   2.302       .  S
Mg557       O573   2.304       .  S
O558       Mg574   2.272   1_554  S
H559        C564   1.080       .  S
O560       Mg568   2.147       .  S
O560        C563   1.239       .  S
H561        C563   1.083       .  S
H562        C565   1.083       .  S
O567       Mg574   2.283       .  S
C570        O575   1.276       .  A
C570        C778   1.492       .  S
O571        C572   1.270       .  A
C572        C581   1.481       .  S
C577        C578   1.407       .  A
C577        C582   1.407       .  A
C577       Br584   1.929       .  S
C578        C579   1.409       .  A
C579        C580   1.408       .  A
C579       Br586   1.932       .  S
C580        C581   1.413       .  A
C580       Br585   1.929       .  S
C581        C582   1.413       .  A
C582       Br583   1.933       .  S
C587        C588   1.416       .  A
C587        C592   1.408       .  A
C587       Br594   1.934       .  S
C588        C589   1.414       .  A
C589        C590   1.410       .  A
C589       Br596   1.933       .  S
C590        C591   1.414       .  A
C590       Br595   1.933       .  S
C591        C592   1.409       .  A
C592       Br593   1.934       .  S
C597        C598   1.406       .  A
C597        C602   1.413   1_545  A
C597       Br604   1.926       .  S
C598        C599   1.409       .  A
C599        C600   1.405   1_545  A
C599       Br606   1.936       .  S
C600        C601   1.414       .  A
C600       Br605   1.934       .  S
C601        C602   1.414       .  A
C602       Br603   1.927       .  S
C607        C608   1.408       .  A
C607        C612   1.414   1_545  A
C607       Br614   1.928       .  S
C608        C609   1.411       .  A
C609        C610   1.404       .  A
C609       Br616   1.933       .  S
C610        C611   1.412   1_545  A
C610       Br615   1.934   1_545  S
C611        C612   1.416       .  A
C612       Br613   1.928       .  S
C617        C618   1.409       .  A
C617        C622   1.410       .  A
C617       Br624   1.928       .  S
C618        C619   1.410       .  A
C619        C620   1.409       .  A
C619       Br626   1.930       .  S
C620        C621   1.410       .  A
C620       Br625   1.930       .  S
C621        C622   1.412       .  A
C622       Br623   1.929       .  S
C627        C628   1.408       .  A
C627        C632   1.409       .  A
C627       Br634   1.929       .  S
C628        C629   1.410       .  A
C629        C630   1.408       .  A
C629       Br636   1.928       .  S
C630        C631   1.409       .  A
C630       Br635   1.930       .  S
C631        C632   1.412       .  A
C632       Br633   1.929       .  S
C637        C638   1.416   1_565  A
C637        C642   1.409       .  A
C637       Br644   1.935       .  S
C638        C639   1.416       .  A
C639        C640   1.414   1_545  A
C639       Br646   1.930       .  S
C640        C641   1.409       .  A
C640       Br645   1.926       .  S
C641        C642   1.415       .  A
C642       Br643   1.939       .  S
C647        C648   1.411   1_556  A
C647        C652   1.405       .  A
C647       Br654   1.936       .  S
C648        C649   1.408       .  A
C649        C650   1.413   1_545  A
C649       Br656   1.928       .  S
C650        C651   1.417   1_554  A
C650       Br655   1.930       .  S
C651        C652   1.416   1_565  A
C652       Br653   1.938   1_545  S
C657        C658   1.408       .  A
C657        C662   1.404       .  A
C657       Br664   1.933       .  S
C658        C659   1.410       .  A
C659        C660   1.409       .  A
C659       Br666   1.932       .  S
C660        C661   1.415       .  A
C660       Br665   1.932       .  S
C661        C662   1.413       .  A
C662       Br663   1.933       .  S
C667        C668   1.411       .  A
C667        C672   1.409       .  A
C667       Br674   1.931       .  S
C668        C669   1.412       .  A
C669        C670   1.412       .  A
C669       Br676   1.931       .  S
C670        C671   1.413       .  A
C670       Br675   1.931       .  S
C671        C672   1.415       .  A
C672       Br673   1.934       .  S
C677        C678   1.409       .  A
C677        C682   1.408       .  A
C677       Br684   1.927       .  S
C678        C679   1.410       .  A
C679        C680   1.406       .  A
C679       Br686   1.931       .  S
C680        C681   1.409       .  A
C680       Br685   1.927       .  S
C681        C682   1.410       .  A
C682       Br683   1.930       .  S
C687        C688   1.408       .  A
C687        C692   1.408       .  A
C687       Br694   1.930       .  S
C688        C689   1.409       .  A
C689        C690   1.409       .  A
C689       Br696   1.930       .  S
C690        C691   1.412   1_554  A
C690       Br695   1.930   1_554  S
C691        C692   1.412   1_556  A
C692       Br693   1.931   1_554  S
C697        C698   1.426       .  A
C697        C702   1.409       .  A
C697       Br704   1.935       .  S
C698        C699   1.411       .  A
C699        C700   1.409       .  A
C699       Br706   1.934       .  S
C700        C701   1.417       .  A
C700       Br705   1.932       .  S
C701        C702   1.404       .  A
C702       Br703   1.935       .  S
C707        C708   1.416       .  A
C707        C712   1.410   1_655  A
C707       Br714   1.929       .  S
C708        C709   1.417   1_655  A
C709        C710   1.405       .  A
C709       Br716   1.938       .  S
C710        C711   1.412       .  A
C710       Br715   1.939       .  S
C711        C712   1.406       .  A
C712       Br713   1.929       .  S
C717        C718   1.415       .  A
C717        C722   1.415   1_455  A
C717       Br724   1.927       .  S
C718        C719   1.416   1_455  A
C719        C720   1.409       .  A
C719       Br726   1.934       .  S
C720        C721   1.415       .  A
C720       Br725   1.935       .  S
C721        C722   1.411       .  A
C722       Br723   1.928       .  S
C727        C728   1.415       .  A
C727        C732   1.406       .  A
C727       Br734   1.932       .  S
C728        C729   1.414       .  A
C729        C730   1.411       .  A
C729       Br736   1.931       .  S
C730        C731   1.411       .  A
C730       Br735   1.931       .  S
C731        C732   1.408       .  A
C732       Br733   1.932       .  S
C737        C738   1.413       .  A
C737        C742   1.413   1_455  A
C737       Br744   1.928       .  S
C738        C739   1.413       .  A
C739        C740   1.404   1_455  A
C739       Br746   1.936       .  S
C740        C741   1.411       .  A
C740       Br745   1.936       .  S
C741        C742   1.409       .  A
C742       Br743   1.928       .  S
C747        C748   1.410       .  A
C747        C752   1.408       .  A
C747       Br754   1.931       .  S
C748        C749   1.412       .  A
C749        C750   1.407       .  A
C749       Br756   1.932       .  S
C750        C751   1.408       .  A
C750       Br755   1.930       .  S
C751        C752   1.410       .  A
C752       Br753   1.930       .  S
C757        C758   1.413       .  A
C757        C762   1.409       .  A
C757       Br764   1.933       .  S
C758        C759   1.414       .  A
C759        C760   1.408       .  A
C759       Br766   1.934       .  S
C760        C761   1.410       .  A
C760       Br765   1.929       .  S
C761        C762   1.412       .  A
C762       Br763   1.932       .  S
C767        C768   1.411       .  A
C767        C772   1.403   1_455  A
C767       Br774   1.937       .  S
C768        C769   1.408       .  A
C769        C770   1.412   1_455  A
C769       Br776   1.927       .  S
C770        C771   1.413       .  A
C770       Br775   1.928       .  S
C771        C772   1.414       .  A
C772       Br773   1.937       .  S
C777        C778   1.413       .  A
C777        C782   1.410       .  A
C777       Br784   1.928       .  S
C778        C779   1.421       .  A
C779        C780   1.406       .  A
C779       Br786   1.937       .  S
C780        C781   1.409       .  A
C780       Br785   1.936       .  S
C781        C782   1.415       .  A
C782       Br783   1.933       .  S
C787        C788   1.413       .  A
C787        C792   1.404       .  A
C787       Br794   1.928       .  S
C788        C789   1.412       .  A
C789        C790   1.408       .  A
C789       Br796   1.931       .  S
C790        C791   1.410       .  A
C790       Br795   1.932       .  S
C791        C792   1.404       .  A
C792       Br793   1.929       .  S
C797        C798   1.414       .  A
C797        C802   1.405       .  A
C797       Br804   1.931       .  S
C798        C799   1.411       .  A
C799        C800   1.408       .  A
C799       Br806   1.931       .  S
C800        C801   1.409       .  A
C800       Br805   1.930       .  S
C801        C802   1.405       .  A
C802       Br803   1.931       .  S
C807        C808   1.406       .  A
C807        C812   1.408       .  A
C807       Br814   1.930       .  S
C808        C809   1.409       .  A
C809        C810   1.407       .  A
C809       Br816   1.929       .  S
C810        C811   1.409       .  A
C810       Br815   1.930       .  S
C811        C812   1.413       .  A
C812       Br813   1.930       .  S
C817        C818   1.410       .  A
C817        C822   1.409       .  A
C817       Br824   1.930   1_556  S
C818        C819   1.409       .  A
C819        C820   1.408       .  A
C819       Br826   1.930       .  S
C820        C821   1.412       .  A
C820       Br825   1.932       .  S
C821        C822   1.412       .  A
C822       Br823   1.931       .  S
C827        C828   1.414       .  A
C827        C832   1.408       .  A
C827       Br834   1.934       .  S
C828        C829   1.414       .  A
C829        C830   1.409       .  A
C829       Br836   1.932       .  S
C830        C831   1.410       .  A
C830       Br835   1.932       .  S
C831        C832   1.411       .  A
C832       Br833   1.932       .  S
C837        C838   1.408       .  A
C837        C842   1.406       .  A
C837       Br844   1.930       .  S
C838        C839   1.410       .  A
C839        C840   1.408       .  A
C839       Br846   1.930       .  S
C840        C841   1.410       .  A
C840       Br845   1.930       .  S
C841        C842   1.412       .  A
C842       Br843   1.933       .  S
C847        C848   1.413       .  A
C847        C852   1.406       .  A
C847       Br854   1.932       .  S
C848        C849   1.410       .  A
C849        C850   1.406       .  A
C849       Br856   1.931       .  S
C850        C851   1.411       .  A
C850       Br855   1.932       .  S
C851        C852   1.405       .  A
C852       Br853   1.930       .  S
C857        C858   1.408       .  A
C857        C862   1.413       .  A
C857       Br864   1.929       .  S
C858        C859   1.413       .  A
C859        C860   1.405       .  A
C859       Br866   1.932       .  S
C860        C861   1.414       .  A
C860       Br865   1.939       .  S
C861        C862   1.418       .  A
C862       Br863   1.931       .  S
C867        C868   1.410       .  A
C867        C872   1.416       .  A
C867       Br874   1.928       .  S
C868        C869   1.412       .  A
C869        C870   1.408       .  A
C869       Br876   1.938       .  S
C870        C871   1.419       .  A
C870       Br875   1.937       .  S
C871        C872   1.416       .  A
C872       Br873   1.929       .  S
C877        C878   1.406       .  A
C877        C882   1.413       .  A
C877       Br884   1.932       .  S
C878        C879   1.416       .  A
C879        C880   1.409       .  A
C879       Br886   1.939       .  S
C880        C881   1.418       .  A
C880       Br885   1.938       .  S
C881        C882   1.428       .  A
C882       Br883   1.938       .  S
C887        C888   1.404       .  A
C887        C892   1.405       .  A
C887       Br894   1.933       .  S
C888        C889   1.412       .  A
C889        C890   1.406       .  A
C889       Br896   1.935       .  S
C890        C891   1.413       .  A
C890       Br895   1.931       .  S
C891        C892   1.419       .  A
C892       Br893   1.935       .  S
C897        C898   1.411       .  A
C897        C902   1.410       .  A
C897       Br904   1.930       .  S
C898        C899   1.408       .  A
C899        C900   1.410       .  A
C899       Br906   1.929       .  S
C900        C901   1.412       .  A
C900       Br905   1.929       .  S
C901        C902   1.410       .  A
C902       Br903   1.930       .  S
C907        C908   1.411       .  A
C907        C912   1.408       .  A
C907       Br914   1.929       .  S
C908        C909   1.411       .  A
C909        C910   1.409       .  A
C909       Br916   1.930       .  S
C910        C911   1.409       .  A
C910       Br915   1.930       .  S
C911        C912   1.407       .  A
C912       Br913   1.930       .  S
C917        C918   1.407       .  A
C917        C922   1.411       .  A
C917       Br924   1.927       .  S
C918        C919   1.410       .  A
C919        C920   1.405       .  A
C919       Br926   1.933       .  S
C920        C921   1.412       .  A
C920       Br925   1.936       .  S
C921        C922   1.413       .  A
C922       Br923   1.928       .  S
C927        C928   1.411       .  A
C927        C932   1.404       .  A
C927       Br934   1.937       .  S
C928        C929   1.408       .  A
C929        C930   1.412       .  A
C929       Br936   1.926       .  S
C930        C931   1.413       .  A
C930       Br935   1.929       .  S
C931        C932   1.412       .  A
C932       Br933   1.935       .  S
