geometry optimzed in LAMMPS
_audit_creation_date              2020-12-01 
_audit_creation_method            'lammps2cif' 
_symmetry_space_group_name_H-M    'P1' 
_symmetry_Int_Tables_number       1 
_symmetry_cell_setting            triclinic 
loop_ 
_symmetry_equiv_pos_as_xyz 
  x,y,z 
_cell_length_a                    33.24167746 
_cell_length_b                    33.61439993142392 
_cell_length_c                    29.76858217559748 
_cell_angle_alpha                 89.61349375199514 
_cell_angle_beta                  90.74637600514316 
_cell_angle_gamma                 90.12962942570094 
loop_ 
_atom_site_label 
_atom_site_type_symbol 
_atom_site_fract_x 
_atom_site_fract_y 
_atom_site_fract_z 
_atom_site_charge 
O1          O  0.04825721  0.79690292  0.47674802    -0.72400
O2          O  0.96277163  0.87228860  0.46943144    -0.72600
O3          O  0.04324921  0.87669458  0.47076946    -0.72500
O4          O  0.96791529  0.79219816  0.47367362    -0.72500
O5          O  0.96503112  0.79631366  0.04643098    -0.72500
O6          O  0.04323117  0.88005666  0.04351534    -0.72500
O7          O  0.96203766  0.87679891  0.04261699    -0.72400
O8          O  0.04522604  0.79975645  0.04913630    -0.72600
V9          V  0.00550869  0.83461463  0.47409997     1.35200
V10         V  0.00384932  0.83833101  0.04404257     1.35200
C11         C  0.06123376  0.78422593  0.51448979     0.76800
C12         C  0.94755015  0.88817151  0.00529410     0.76900
C13         C  0.05670166  0.89224037  0.50635573     0.76700
C14         C  0.95384749  0.77935830  0.01036455     0.76700
O15         O  0.81920516  0.01248888  0.03219415    -0.72400
O16         O  0.90079786  0.93262827  0.03890742    -0.72600
O17         O  0.90020921  0.01257169  0.03474449    -0.72500
O18         O  0.81952071  0.93287331  0.03760590    -0.72500
O19         O  0.82297088  0.92917035  0.46284366    -0.72500
O20         O  0.90293670  0.01105629  0.46180533    -0.72500
O21         O  0.90423617  0.93062727  0.46517501    -0.72400
O22         O  0.82193067  0.00828418  0.45794392    -0.72600
V23         V  0.86006638  0.97256082  0.03446343     1.35200
V24         V  0.86317813  0.96981822  0.46335274     1.35200
C25         C  0.80481717  0.02295876  0.99432813     0.76800
C26         C  0.91711727  0.91791086  0.50266001     0.76900
C27         C  0.91367580  0.02571920  0.99807164     0.76700
C28         C  0.80727137  0.91808413  0.49950343     0.76700
O29         O  0.03488424  0.15327645  0.04003623    -0.72400
O30         O  0.95784151  0.07006536  0.03565499    -0.72600
O31         O  0.03857492  0.07356359  0.03669896    -0.72500
O32         O  0.95469374  0.14991146  0.03922900    -0.72500
O33         O  0.95676275  0.15477979  0.46859092    -0.72500
O34         O  0.03885927  0.07623953  0.46531172    -0.72500
O35         O  0.95807236  0.07429356  0.46404769    -0.72400
O36         O  0.03725286  0.15618612  0.46929553    -0.72600
V37         V  0.99646107  0.11166137  0.03643358     1.35200
V38         V  0.99769076  0.11524152  0.46819519     1.35200
C39         C  0.04815979  0.16904931  0.00453892     0.76800
C40         C  0.94545080  0.05815841  0.49967823     0.76900
C41         C  0.05224731  0.06158217  0.99979627     0.76700
C42         C  0.94313365  0.16668524  0.50565427     0.76700
O43         O  0.18397247  0.94182837  0.03079913    -0.72400
O44         O  0.10054455  0.01894096  0.03481017    -0.72600
O45         O  0.10289187  0.93901358  0.03794985    -0.72500
O46         O  0.18159539  0.02078805  0.02861708    -0.72500
O47         O  0.17801976  0.01767912  0.45598240    -0.72500
O48         O  0.09644062  0.93849986  0.46551426    -0.72500
O49         O  0.09698165  0.01850715  0.46284825    -0.72400
O50         O  0.17692911  0.93878518  0.45761037    -0.72600
V51         V  0.14199707  0.98012238  0.03165900     1.35200
V52         V  0.13696738  0.97844549  0.46193619     1.35200
C53         C  0.19618051  0.92887315  0.99352453     0.76800
C54         C  0.08531467  0.03179450  0.50002011     0.76900
C55         C  0.08636766  0.92476052  0.00314052     0.76700
C56         C  0.19565470  0.03083876  0.49083042     0.76700
C57         C  0.17972855  0.58068924  0.47562861     0.85800
C58         C  0.14891221  0.61450555  0.48081639    -0.54400
C59         C  0.15771958  0.64177214  0.01354712     0.08800
C60         C  0.19418973  0.62978893  0.04343819     0.19700
C61         C  0.22041536  0.60282645  0.47340639    -0.55100
C62         C  0.22920644  0.62927741  0.00992562     0.08900
C63         C  0.17975709  0.55955606  0.52112746    -0.54700
C64         C  0.18765116  0.58533051  0.05658030     0.09400
H65         H  0.12428479  0.62068392  0.45791516     0.14000
H66         H  0.19960138  0.64986105  0.07238217    -0.00300
H67         H  0.23942923  0.60212719  0.44400844     0.14300
H68         H  0.17583815  0.52927896  0.02401033     0.14000
C69         C  0.39742376  0.80020031  0.02900821     0.85800
C70         C  0.36575979  0.83357198  0.02679555    -0.54400
C71         C  0.33774970  0.82880513  0.49075808     0.08800
C72         C  0.34543358  0.79246185  0.46053702     0.19700
C73         C  0.37179703  0.76198128  0.02922162    -0.55100
C74         C  0.34341394  0.75708194  0.49377706     0.08900
C75         C  0.41720033  0.80145726  0.98292550    -0.54700
C76         C  0.39030484  0.79575390  0.44709511     0.09400
H77         H  0.36181677  0.85649841  0.05159028     0.14000
H78         H  0.32454179  0.78997579  0.43132454    -0.00300
H79         H  0.37339330  0.74043503  0.05655419     0.14300
H80         H  0.44863338  0.80161491  0.47889928     0.14000
C81         C  0.52745254  0.78432502  0.20421672     0.01600
C82         C  0.48530071  0.78754854  0.19816093     0.01600
C83         C  0.45982781  0.78628656  0.23568623    -0.18900
C84         C  0.47566778  0.78386792  0.27950593     0.01600
C85         C  0.51787957  0.78268717  0.28545043     0.01600
C86         C  0.54322061  0.78149001  0.24794762    -0.18900
H87         H  0.57555709  0.78022719  0.25295843     0.03600
H88         H  0.42754613  0.78861137  0.23077476     0.03600
C89         C  0.60742749  0.78691563  0.45389275     0.85800
C90         C  0.64045756  0.81943775  0.45599163    -0.54400
C91         C  0.66568711  0.81408032  0.99269556     0.08800
C92         C  0.65636276  0.77811234  0.02288401     0.19700
C93         C  0.63156216  0.74793427  0.45517068    -0.55100
C94         C  0.65804194  0.74297940  0.98981777     0.08900
C95         C  0.58678382  0.78892970  0.49938494    -0.54700
C96         C  0.61153306  0.78210865  0.03571124     0.09400
H97         H  0.64573301  0.84190560  0.43058984     0.14000
H98         H  0.67726272  0.77562180  0.05213374    -0.00300
H99         H  0.62743092  0.72501179  0.43015264     0.14300
H100        H  0.55370148  0.78962409  0.00332420     0.14000
C101        C  0.82753648  0.57587864  0.05351709     0.85800
C102        C  0.85670507  0.61158949  0.05599858    -0.54400
C103        C  0.85266332  0.63781851  0.52046712     0.08800
C104        C  0.82101246  0.62555978  0.48496527     0.19700
C105        C  0.78582430  0.59583001  0.04792432    -0.55100
C106        C  0.78214090  0.62344460  0.51264540     0.08900
C107        C  0.83495758  0.55665037  0.00800972    -0.54700
C108        C  0.83099939  0.58198918  0.47233409     0.09400
H109        H  0.87726088  0.61659140  0.08403226     0.14000
H110        H  0.81939703  0.64624369  0.45578687    -0.00300
H111        H  0.76056515  0.59022990  0.06929863     0.14300
H112        H  0.84022679  0.52532998  0.50506039     0.14000
C113        C  0.39349078  0.16795482  0.44145222     0.85800
C114        C  0.36031617  0.13589732  0.43800957    -0.54400
C115        C  0.33495659  0.13439200  0.97344524     0.08800
C116        C  0.34452194  0.16617040  0.00867854     0.19700
C117        C  0.37068536  0.20717307  0.44990270    -0.55100
C118        C  0.34243688  0.20526948  0.98116891     0.08900
C119        C  0.41475384  0.16031987  0.48664457    -0.54700
C120        C  0.38944075  0.16069856  0.02181023     0.09400
H121        H  0.35728537  0.11595002  0.40960786     0.14000
H122        H  0.32413554  0.16425353  0.03770111    -0.00300
H123        H  0.37671668  0.23519016  0.43351867     0.14300
H124        H  0.44711703  0.15864754  0.98978304     0.14000
C125        C  0.17785410  0.36685733  0.05728670     0.85800
C126        C  0.14598818  0.33360646  0.05593515    -0.54400
C127        C  0.14784962  0.31175426  0.51758579     0.08800
C128        C  0.18064681  0.32514098  0.48487151     0.19700
C129        C  0.21808182  0.34608069  0.04808921    -0.55100
C130        C  0.21926903  0.32395252  0.51371635     0.08900
C131        C  0.17064809  0.39111437  0.01377957    -0.54700
C132        C  0.17210836  0.36963228  0.47565584     0.09400
H133        H  0.12594767  0.32740548  0.08366813     0.14000
H134        H  0.18249849  0.30658347  0.45427358    -0.00300
H135        H  0.24520702  0.34955882  0.06815039     0.14300
H136        H  0.16626297  0.42398439  0.51266742     0.14000
C137        C  0.16072595  0.45329013  0.30467757     0.01600
C138        C  0.16461888  0.49493077  0.30748629     0.01600
C139        C  0.16745917  0.51826453  0.26823659    -0.18900
C140        C  0.16650045  0.50084643  0.22543303     0.01600
C141        C  0.16125625  0.45890682  0.22257159     0.01600
C142        C  0.15783732  0.43595313  0.26226757    -0.18900
H143        H  0.15466347  0.40390151  0.26015145     0.03600
H144        H  0.17184138  0.55010299  0.27121920     0.03600
C145        C  0.48217439  0.15748616  0.27425567     0.01600
C146        C  0.52446833  0.15473541  0.27044348     0.01600
C147        C  0.54071983  0.15096793  0.22738037    -0.18900
C148        C  0.51571364  0.14895760  0.18875379     0.01600
C149        C  0.47342192  0.15163889  0.19291850     0.01600
C150        C  0.45724633  0.15604329  0.23572768    -0.18900
H151        H  0.42489554  0.15831438  0.23918280     0.03600
H152        H  0.57309941  0.14973181  0.22380448     0.03600
C153        C  0.60477268  0.14782116  0.02178691     0.85800
C154        C  0.63707552  0.11510434  0.01738274    -0.54400
C155        C  0.66357958  0.11838969  0.48250036     0.08800
C156        C  0.65591815  0.15695082  0.45594013     0.19700
C157        C  0.62957418  0.18625569  0.02557577    -0.55100
C158        C  0.65807714  0.18960803  0.49240223     0.08900
C159        C  0.58471090  0.14993887  0.97528405    -0.54700
C160        C  0.61097030  0.15491293  0.44087381     0.09400
H161        H  0.64184131  0.09036467  0.04008993     0.14000
H162        H  0.67734388  0.16021270  0.42808083    -0.00300
H163        H  0.62620538  0.20630336  0.05370325     0.14300
H164        H  0.55285564  0.14518315  0.47024376     0.14000
C165        C  0.81588426  0.36937049  0.47723872     0.85800
C166        C  0.84717947  0.33559067  0.47571542    -0.54400
C167        C  0.84567152  0.30972628  0.00982059     0.08800
C168        C  0.81348882  0.32017702  0.04443963     0.19700
C169        C  0.77566296  0.34684573  0.48190996    -0.55100
C170        C  0.77442800  0.32131665  0.01556779     0.08900
C171        C  0.82205687  0.38914380  0.52284322    -0.54700
C172        C  0.82304143  0.36388154  0.05825060     0.09400
H173        H  0.86733141  0.33150744  0.44768294     0.14000
H174        H  0.81230495  0.29894824  0.07297185    -0.00300
H175        H  0.75132238  0.34814001  0.45760724     0.14300
H176        H  0.83048455  0.42129585  0.02676067     0.14000
C177        C  0.84325975  0.48896778  0.22249749     0.01600
C178        C  0.83856913  0.44727382  0.22751626     0.01600
C179        C  0.83565302  0.43136795  0.27106703    -0.18900
C180        C  0.83633576  0.45617590  0.30899520     0.01600
C181        C  0.84223387  0.49760014  0.30399743     0.01600
C182        C  0.84600928  0.51354317  0.26059991    -0.18900
H183        H  0.84871171  0.54548255  0.25628734    -0.00800
H184        H  0.83174042  0.39956690  0.27551665     0.03600
C185        C  0.83062796  0.37828273  0.10501221    -0.06800
C186        C  0.79909227  0.37713514  0.13583760    -0.17900
C187        C  0.80137917  0.39782799  0.17681941     0.10400
C188        C  0.83609266  0.42050458  0.18741298    -0.06700
C189        C  0.86864204  0.41946030  0.15788102    -0.17900
C190        C  0.86635088  0.39891328  0.11708287     0.10500
S191        S  0.75857743  0.39738372  0.21351614    -0.32900
S192        S  0.90991326  0.40135038  0.08162919    -0.32900
H193        H  0.90166203  0.36675922  0.05699772     0.28500
H194        H  0.73639222  0.36805369  0.19046295     0.28500
H195        H  0.77155208  0.36221911  0.12651396     0.19100
H196        H  0.89594500  0.43555822  0.16630451     0.19100
C197        C  0.81962893  0.39793455  0.43675070    -0.06800
C198        C  0.78647475  0.40555076  0.40771971    -0.17900
C199        C  0.79090355  0.42493563  0.36647466     0.10400
C200        C  0.82921326  0.43835982  0.35365888    -0.06700
C201        C  0.86154538  0.43483372  0.38389514    -0.17900
C202        C  0.85716166  0.41559122  0.42550546     0.10500
S203        S  0.74625495  0.43070784  0.33170790    -0.32900
S204        S  0.90035825  0.41318765  0.46291175    -0.32900
H205        H  0.92523161  0.43942226  0.43882277     0.28500
H206        H  0.75986184  0.46185765  0.30420075     0.28500
H207        H  0.75632548  0.39693579  0.41622438     0.19100
H208        H  0.89062079  0.44637180  0.37420922     0.19100
C209        C  0.68995606  0.22130945  0.49674179    -0.06800
C210        C  0.70168838  0.23549315  0.04015273    -0.17900
C211        C  0.72836639  0.26714404  0.04744650     0.10400
C212        C  0.74585175  0.28680190  0.01064535    -0.06700
C213        C  0.73721149  0.27009992  0.46740638    -0.17900
C214        C  0.70781869  0.24097975  0.45977664     0.10500
S215        S  0.73584844  0.28320847  0.10430956    -0.32900
S216        S  0.69313408  0.23372244  0.40195107    -0.32900
H217        H  0.65208265  0.23016876  0.41096838     0.28500
H218        H  0.72542574  0.32255183  0.09298911     0.28500
H219        H  0.69025340  0.22019130  0.06942719     0.19100
H220        H  0.75145555  0.28328081  0.43836629     0.19100
C221        C  0.59541665  0.15925235  0.39388975    -0.06800
C222        C  0.59950866  0.12700599  0.36461588    -0.17900
C223        C  0.57724680  0.12485428  0.32419433     0.10400
C224        C  0.55164210  0.15660782  0.31109665    -0.06700
C225        C  0.55000730  0.19016130  0.33890113    -0.17900
C226        C  0.57057749  0.19152437  0.38031989     0.10500
S227        S  0.58027022  0.07931151  0.29294380    -0.32900
S228        S  0.56189738  0.23488183  0.41440012    -0.32900
H229        H  0.59120676  0.22814583  0.44775666     0.28500
H230        H  0.53925692  0.07821323  0.28081339     0.28500
H231        H  0.61784832  0.10187613  0.37487352     0.19100
H232        H  0.53110778  0.21502079  0.32909207     0.19100
C233        C  0.53450353  0.14514947  0.14416403    -0.06800
C234        C  0.52849735  0.17542608  0.11224299    -0.17900
C235        C  0.54744945  0.17463702  0.07054001     0.10400
C236        C  0.57546503  0.14398308  0.06117472    -0.06700
C237        C  0.57841659  0.11201781  0.09210451    -0.17900
C238        C  0.55873588  0.11241804  0.13319102     0.10500
S239        S  0.53636201  0.21428655  0.03104591    -0.32900
S240        S  0.56712789  0.07037097  0.17026091    -0.32900
H241        H  0.53193946  0.07394860  0.19536613     0.28500
H242        H  0.49968257  0.22578980  0.05015300     0.28500
H243        H  0.50985396  0.20058345  0.12060684     0.19100
H244        H  0.59627216  0.08619186  0.08567804     0.19100
C245        C  0.16632041  0.38726027  0.42991441    -0.06800
C246        C  0.19727023  0.38365138  0.39860671    -0.17900
C247        C  0.19579034  0.40393372  0.35721733     0.10400
C248        C  0.16197313  0.42768416  0.34592628    -0.06700
C249        C  0.13018882  0.42980837  0.37641671    -0.17900
C250        C  0.13193824  0.40998983  0.41802222     0.10500
S251        S  0.23906172  0.39995496  0.32154436    -0.32900
S252        S  0.08922946  0.41506046  0.45431467    -0.32900
H253        H  0.09347443  0.37797757  0.47591416     0.28500
H254        H  0.23709779  0.43863768  0.30346557     0.28500
H255        H  0.22386188  0.36668667  0.40743019     0.19100
H256        H  0.10407198  0.44773632  0.36806262     0.19100
C257        C  0.16475346  0.43691433  0.17967702    -0.06800
C258        C  0.19383652  0.40710075  0.17813508    -0.17900
C259        C  0.19723973  0.38217078  0.14115521     0.10400
C260        C  0.17521524  0.39102728  0.10086467    -0.06700
C261        C  0.14512176  0.42057254  0.10319217    -0.17900
C262        C  0.13906121  0.44282878  0.14226425     0.10500
S263        S  0.22502184  0.33678208  0.15064876    -0.32900
S264        S  0.09656155  0.47597389  0.14505611    -0.32900
H265        H  0.08640852  0.47526856  0.09904203     0.28500
H266        H  0.23519131  0.34191435  0.19625959     0.28500
H267        H  0.21267654  0.40199955  0.20755405     0.19100
H268        H  0.12487378  0.42503982  0.07489611     0.19100
C269        C  0.31101205  0.23654289  0.98728249    -0.06800
C270        C  0.29419530  0.24026258  0.02997352    -0.17900
C271        C  0.26178528  0.26551800  0.03743125     0.10400
C272        C  0.25173203  0.29456123  0.50664177    -0.06700
C273        C  0.26938019  0.29235230  0.46450391    -0.17900
C274        C  0.29733231  0.26270517  0.45481946     0.10500
S275        S  0.23301431  0.25834994  0.08776993    -0.32900
S276        S  0.30794590  0.25700449  0.39592967    -0.32900
H277        H  0.30579993  0.21529429  0.39717472     0.28500
H278        H  0.25972682  0.23232075  0.11016098     0.28500
H279        H  0.30520538  0.22231926  0.05761538     0.19100
H280        H  0.25938564  0.31230862  0.43798031     0.19100
C281        C  0.40541467  0.15775786  0.06859583    -0.06800
C282        C  0.42030299  0.12104814  0.08399568    -0.17900
C283        C  0.43998334  0.11749745  0.12582875     0.10400
C284        C  0.44592315  0.15157205  0.15277273    -0.06700
C285        C  0.42900574  0.18782104  0.13845737    -0.17900
C286        C  0.40959155  0.19142397  0.09648163     0.10500
S287        S  0.45699306  0.06876358  0.14270470    -0.32900
S288        S  0.39365248  0.24035239  0.07904183    -0.32900
H289        H  0.40777648  0.23702328  0.03493600     0.28500
H290        H  0.45547807  0.07566274  0.18917896     0.28500
H291        H  0.41711416  0.09504675  0.06289727     0.19100
H292        H  0.43345332  0.21414872  0.15876513     0.19100
C293        C  0.42093172  0.16697192  0.40028471    -0.06800
C294        C  0.42158382  0.19905965  0.36928130    -0.17900
C295        C  0.44251864  0.19720959  0.32919767     0.10400
C296        C  0.46301874  0.16218325  0.31828872    -0.06700
C297        C  0.46393444  0.13043138  0.34889233    -0.17900
C298        C  0.44337225  0.13230240  0.38969494     0.10500
S299        S  0.44106966  0.24054911  0.29290780    -0.32900
S300        S  0.44456051  0.08914821  0.42640859    -0.32900
H301        H  0.47148690  0.06623267  0.40136957     0.28500
H302        H  0.47826575  0.23433011  0.27222665     0.28500
H303        H  0.40495632  0.22606060  0.37423840     0.19100
H304        H  0.47998941  0.10366285  0.33999875     0.19100
C305        C  0.84060867  0.52452651  0.34365205    -0.06800
C306        C  0.80268448  0.53361554  0.36105183    -0.17900
C307        C  0.79875392  0.55358848  0.40194774     0.10400
C308        C  0.83342970  0.56629574  0.42579095    -0.06700
C309        C  0.87137905  0.55891326  0.40745366    -0.17900
C310        C  0.87545094  0.53816157  0.36684431     0.10500
S311        S  0.74866809  0.56017274  0.42298876    -0.32900
S312        S  0.92605849  0.52922138  0.34794555    -0.32900
H313        H  0.91752002  0.50256802  0.31307486     0.28500
H314        H  0.75813258  0.54835019  0.46721574     0.28500
H315        H  0.77582586  0.52340370  0.34363271     0.19100
H316        H  0.89814991  0.56810620  0.42582567     0.19100
C317        C  0.83216394  0.54708527  0.09362911    -0.06800
C318        C  0.79793634  0.53327870  0.11657834    -0.17900
C319        C  0.80093977  0.51515752  0.15866330     0.10400
C320        C  0.83913512  0.50808232  0.17789945    -0.06700
C321        C  0.87359115  0.51727917  0.15327505    -0.17900
C322        C  0.87053680  0.53530400  0.11060746     0.10500
S323        S  0.75449883  0.50210071  0.18598962    -0.32900
S324        S  0.91562064  0.54145236  0.07782352    -0.32900
H325        H  0.94320905  0.52881398  0.11115394     0.28500
H326        H  0.76797332  0.50773218  0.23036755     0.28500
H327        H  0.76813468  0.53625445  0.10238552     0.19100
H328        H  0.90279765  0.50973600  0.16735593     0.19100
C329        C  0.68802204  0.71011896  0.99435217    -0.06800
C330        C  0.69752902  0.69648475  0.03770717    -0.17900
C331        C  0.72798508  0.66857772  0.04583682     0.10400
C332        C  0.74869318  0.65276435  0.50780510    -0.06700
C333        C  0.73676123  0.66424827  0.46440555    -0.17900
C334        C  0.70791724  0.69401096  0.45691428     0.10500
S335        S  0.74095083  0.65825482  0.10407549    -0.32900
S336        S  0.70003382  0.71091309  0.39962960    -0.32900
H337        H  0.72374087  0.68229961  0.37820061     0.28500
H338        H  0.72035341  0.69027234  0.12337156     0.28500
H339        H  0.68149095  0.70851509  0.06585498     0.19100
H340        H  0.75110993  0.65054110  0.43605052     0.19100
C341        C  0.55526114  0.78482866  0.16521074    -0.06800
C342        C  0.56754085  0.74834362  0.14729324    -0.17900
C343        C  0.58672705  0.74647036  0.10562240     0.10400
C344        C  0.59598123  0.78200061  0.08222770    -0.06700
C345        C  0.58577092  0.81854414  0.10135894    -0.17900
C346        C  0.56570751  0.82038087  0.14243502     0.10500
S347        S  0.59601405  0.69779328  0.08300868    -0.32900
S348        S  0.55326643  0.86898783  0.16304552    -0.32900
H349        H  0.55334828  0.85815699  0.20858539     0.28500
H350        H  0.58857564  0.70793922  0.03784656     0.28500
H351        H  0.55945858  0.72093069  0.16433153     0.19100
H352        H  0.59248250  0.84589864  0.08344477     0.19100
C353        C  0.53638449  0.78627652  0.33051017    -0.06800
C354        C  0.53261432  0.75493429  0.36131839    -0.17900
C355        C  0.55200318  0.75624614  0.40339924     0.10400
C356        C  0.57816564  0.78859266  0.41367388    -0.06700
C357        C  0.57806209  0.82159445  0.38415799    -0.17900
C358        C  0.55763170  0.82075754  0.34307116     0.10500
S359        S  0.54309911  0.71618038  0.44302545    -0.32900
S360        S  0.56035471  0.86475474  0.30808292    -0.32900
H361        H  0.52296188  0.85976554  0.28631739     0.28500
H362        H  0.51390218  0.69576819  0.41741316     0.28500
H363        H  0.51496277  0.72915365  0.35196455     0.19100
H364        H  0.59326672  0.84889058  0.39252882     0.19100
C365        C  0.40552255  0.79452425  0.40028049    -0.06800
C366        C  0.40796208  0.75764716  0.37866576    -0.17900
C367        C  0.42906144  0.75334517  0.33829766     0.10400
C368        C  0.44831858  0.78682593  0.31880947    -0.06700
C369        C  0.44449298  0.82393898  0.33966701    -0.17900
C370        C  0.42345902  0.82813490  0.37989318     0.10500
S371        S  0.43261930  0.70371246  0.31586191    -0.32900
S372        S  0.42197945  0.87695242  0.40451192    -0.32900
H373        H  0.38510390  0.87165909  0.42623823     0.28500
H374        H  0.44577399  0.71366702  0.27268994     0.28500
H375        H  0.39496288  0.73158203  0.39451474     0.19100
H376        H  0.45899378  0.84976922  0.32509247     0.19100
C377        C  0.42710127  0.80096279  0.06896118    -0.06800
C378        C  0.42692283  0.83236595  0.10025485    -0.17900
C379        C  0.44635624  0.82920496  0.14192726     0.10400
C380        C  0.46734130  0.79404663  0.15301330    -0.06700
C381        C  0.47126213  0.76444062  0.12047388    -0.17900
C382        C  0.45294257  0.76822977  0.07804166     0.10500
S383        S  0.44179529  0.87095771  0.17957020    -0.32900
S384        S  0.46202863  0.73012233  0.03680046    -0.32900
H385        H  0.49639342  0.71388841  0.05802671     0.28500
H386        H  0.47520349  0.86282067  0.20736072     0.28500
H387        H  0.41173474  0.85998075  0.09330467     0.19100
H388        H  0.48776926  0.73763764  0.12878618     0.19100
C389        C  0.25985846  0.66138450  0.00722382    -0.06800
C390        C  0.24547814  0.69755225  0.49618761    -0.17900
C391        C  0.27168744  0.72923230  0.48784776     0.10400
C392        C  0.31375023  0.72344806  0.49246100    -0.06700
C393        C  0.32840155  0.68664264  0.00587981    -0.17900
C394        C  0.30159883  0.65479770  0.01170239     0.10500
S395        S  0.24959902  0.77582658  0.47068983    -0.32900
S396        S  0.32246491  0.60737643  0.02769839    -0.32900
H397        H  0.29774775  0.58512167  0.99878507     0.28500
H398        H  0.20978881  0.76766825  0.48343810     0.28500
H399        H  0.21359821  0.70273236  0.49443524     0.19100
H400        H  0.36029478  0.68136900  0.01094655     0.19100
C401        C  0.17408767  0.52634270  0.18478946    -0.06800
C402        C  0.20609419  0.51637099  0.15672811    -0.17900
C403        C  0.21266862  0.53651579  0.11616636     0.10400
C404        C  0.18758416  0.56875506  0.10325316    -0.06700
C405        C  0.15752404  0.58087360  0.13283307    -0.17900
C406        C  0.15007577  0.55980664  0.17294197     0.10500
S407        S  0.25312189  0.51867957  0.08200830    -0.32900
S408        S  0.10750623  0.57544264  0.20536494    -0.32900
H409        H  0.09685376  0.53742078  0.22118361     0.28500
H410        H  0.25980720  0.55498201  0.05998938     0.28500
H411        H  0.22571041  0.49187262  0.16598645     0.19100
H412        H  0.13780179  0.60515873  0.12309515     0.19100
C413        C  0.16636558  0.51442644  0.35160340    -0.06800
C414        C  0.19999580  0.50813628  0.37951618    -0.17900
C415        C  0.20300290  0.52596924  0.42180450     0.10400
C416        C  0.17290561  0.55314105  0.43531030    -0.06700
C417        C  0.13742386  0.55571020  0.40870649    -0.17900
C418        C  0.13399438  0.53694253  0.36726485     0.10500
S419        S  0.24551452  0.51352896  0.45765731    -0.32900
S420        S  0.08739863  0.54301919  0.33604796    -0.32900
H421        H  0.08823789  0.50629913  0.31381040     0.28500
H422        H  0.25954933  0.48136826  0.43227339     0.28500
H423        H  0.22397460  0.48920545  0.36795308     0.19100
H424        H  0.11129138  0.57150331  0.41967816     0.19100
C425        C  0.23207584  0.90296015  0.99147725    -0.06800
C426        C  0.24186815  0.87986438  0.02934758    -0.17900
C427        C  0.27574751  0.85548801  0.03029757     0.10400
C428        C  0.30028628  0.85262547  0.49044150    -0.06700
C429        C  0.28943814  0.87403564  0.45171092    -0.17900
C430        C  0.25588936  0.89921133  0.45128372     0.10500
S431        S  0.28353958  0.82599807  0.08055654    -0.32900
S432        S  0.24813983  0.92947969  0.40176643    -0.32900
H433        H  0.24312663  0.96489682  0.42603287     0.28500
H434        H  0.29609849  0.79178724  0.05814714     0.28500
H435        H  0.22265624  0.88040954  0.05848117     0.19100
H436        H  0.30818935  0.87245084  0.42227057     0.19100
C437        C  0.29913559  0.10788112  0.97653444    -0.06800
C438        C  0.29300727  0.08713139  0.01681691    -0.17900
C439        C  0.25975720  0.06206661  0.02245456     0.10400
C440        C  0.23058196  0.05839371  0.98747082    -0.06700
C441        C  0.23669866  0.07947193  0.44751302    -0.17900
C442        C  0.27014278  0.10455869  0.44175279     0.10500
S443        S  0.25804137  0.03407386  0.07422013    -0.32900
S444        S  0.27358397  0.13413544  0.39103191    -0.32900
H445        H  0.23817494  0.12018864  0.37003784     0.28500
H446        H  0.25154784  0.99745184  0.05260525     0.28500
H447        H  0.31504076  0.08961033  0.04383551     0.19100
H448        H  0.21409081  0.07756234  0.42111895     0.19100
C449        C  0.91275093  0.19979277  0.00558878    -0.06800
C450        C  0.91203993  0.22225526  0.04531592    -0.17900
C451        C  0.89036504  0.25794557  0.04792355     0.10400
C452        C  0.86848283  0.27165266  0.00998036    -0.06700
C453        C  0.86760167  0.24757713  0.47362087    -0.17900
C454        C  0.88910102  0.21187879  0.47156152     0.10500
S455        S  0.89343789  0.28688389  0.09878885    -0.32900
S456        S  0.88172100  0.18192092  0.42211346    -0.32900
H457        H  0.88380706  0.14526275  0.44506719     0.28500
H458        H  0.92015006  0.26189459  0.12265347     0.28500
H459        H  0.92994548  0.21265949  0.07399239     0.19100
H460        H  0.84856098  0.25613766  0.44535747     0.19100
C461        C  0.12442882  0.27431266  0.51258585    -0.06800
C462        C  0.12345626  0.24600198  0.04694859    -0.17900
C463        C  0.10158268  0.21039613  0.04430229     0.10400
C464        C  0.07609296  0.20353628  0.00670134    -0.06700
C465        C  0.08010365  0.22953439  0.47147960    -0.17900
C466        C  0.10281463  0.26478197  0.47300342     0.10500
S467        S  0.10824710  0.17342021  0.08819162    -0.32900
S468        S  0.10122232  0.29851750  0.42552463    -0.32900
H469        H  0.08228376  0.27234478  0.39519797     0.28500
H470        H  0.13277308  0.19639325  0.11688363     0.28500
H471        H  0.14279585  0.25140494  0.07578494     0.19100
H472        H  0.06209323  0.22319817  0.44181910     0.19100
C473        C  0.70336280  0.83798662  0.99608529    -0.06800
C474        C  0.71305130  0.85669341  0.03668553    -0.17900
C475        C  0.74663711  0.88210838  0.04055247     0.10400
C476        C  0.77147621  0.88876627  0.00262939    -0.06700
C477        C  0.76561483  0.86629678  0.46199170    -0.17900
C478        C  0.73205217  0.84112560  0.45879775     0.10500
S479        S  0.75574682  0.90666282  0.09361448    -0.32900
S480        S  0.72554123  0.81091967  0.40926349    -0.32900
H481        H  0.76211145  0.82081506  0.38869585     0.28500
H482        H  0.72355933  0.88961962  0.11723744     0.28500
H483        H  0.69337384  0.85228177  0.06500019     0.19100
H484        H  0.78643162  0.86787218  0.43437291     0.19100
C485        C  0.76987361  0.04955918  0.99030049    -0.06800
C486        C  0.73276561  0.03212239  0.97911725    -0.17900
C487        C  0.69799255  0.05507658  0.97393289     0.10400
C488        C  0.70069635  0.09436630  0.47925006    -0.06700
C489        C  0.73766227  0.11251585  0.49014804    -0.17900
C490        C  0.77297948  0.09004407  0.49501285     0.10500
S491        S  0.65180383  0.02938145  0.95998890    -0.32900
S492        S  0.81868540  0.11591899  0.51039638    -0.32900
H493        H  0.84553845  0.08894435  0.49108364     0.28500
H494        H  0.63219128  0.06194754  0.93974216     0.28500
H495        H  0.73082981  0.00017856  0.97464368     0.19100
H496        H  0.73877558  0.14421383  0.49646577     0.19100
C497        C  0.87675896  0.67516550  0.51763084    -0.06800
C498        C  0.89818776  0.68279896  0.47833833    -0.17900
C499        C  0.92331620  0.71630245  0.47431390     0.10400
C500        C  0.92691001  0.74341160  0.51067130    -0.06700
C501        C  0.90525203  0.73565991  0.05008615    -0.17900
C502        C  0.88037629  0.70222076  0.05357048     0.10500
S503        S  0.95166119  0.72234788  0.42320947    -0.32900
S504        S  0.85125885  0.69746540  0.10384056    -0.32900
H505        H  0.81725307  0.68354710  0.08052497     0.28500
H506        H  0.93782001  0.68792135  0.40122625     0.28500
H507        H  0.89600484  0.66164917  0.45113670     0.19100
H508        H  0.90698640  0.75603307  0.07810684     0.19100
C509        C  0.13734105  0.68136494  0.01429123    -0.06800
C510        C  0.12289444  0.69558541  0.05514246    -0.17900
C511        C  0.09978255  0.73047505  0.05708516     0.10400
C512        C  0.08974200  0.75158903  0.01689029    -0.06700
C513        C  0.10678272  0.73727177  0.47658217    -0.17900
C514        C  0.13037369  0.70306434  0.47489538     0.10500
S515        S  0.08327581  0.74521375  0.11184949    -0.32900
S516        S  0.14967363  0.69117500  0.41997644    -0.32900
H517        H  0.18456113  0.67134615  0.43435103     0.28500
H518        H  0.09833923  0.78418275  0.10727748     0.28500
H519        H  0.12874221  0.67880103  0.08573881     0.19100
H520        H  0.09984570  0.75270269  0.44536432     0.19100
O521        O  0.04689618  0.79754154  0.97656097    -0.72400
O522        O  0.96162322  0.87334067  0.96976071    -0.72600
O523        O  0.04232500  0.87744833  0.97060730    -0.72500
O524        O  0.96672873  0.79327734  0.97385149    -0.72500
O525        O  0.96575046  0.79545294  0.54621155    -0.72500
O526        O  0.04401690  0.87919046  0.54368582    -0.72500
O527        O  0.96297169  0.87592813  0.54227910    -0.72400
O528        O  0.04615834  0.79888098  0.54932002    -0.72600
V529        V  0.00436048  0.83555750  0.97413198     1.35200
V530        V  0.00470165  0.83740854  0.54400112     1.35200
C531        C  0.05981078  0.78470395  0.01427315     0.76800
C532        C  0.94877834  0.88737403  0.50484476     0.76900
C533        C  0.05603753  0.89288328  0.00613594     0.76700
C534        C  0.95451188  0.77857371  0.51011183     0.76700
O535        O  0.82068180  0.01189104  0.53081991    -0.72400
O536        O  0.90240377  0.93232400  0.53807128    -0.72600
O537        O  0.90164792  0.01239729  0.53475158    -0.72500
O538        O  0.82132639  0.93246985  0.53544487    -0.72500
O539        O  0.82080789  0.92891903  0.96507704    -0.72500
O540        O  0.90036917  0.01090815  0.96177371    -0.72500
O541        O  0.90199940  0.93069995  0.96600099    -0.72400
O542        O  0.81937274  0.00807713  0.95935990    -0.72600
V543        V  0.86169822  0.97219972  0.53334703     1.35200
V544        V  0.86073961  0.96968738  0.96448283     1.35200
C545        C  0.80667523  0.02255030  0.49285925     0.76800
C546        C  0.91540603  0.91828312  0.00338410     0.76900
C547        C  0.91553093  0.02586960  0.49844712     0.76700
C548        C  0.80552739  0.91783102  0.00196137     0.76700
O549        O  0.03678120  0.15335546  0.54204729    -0.72400
O550        O  0.95905476  0.07051122  0.53695834    -0.72600
O551        O  0.03980961  0.07359987  0.53829657    -0.72500
O552        O  0.95649519  0.15055465  0.54131011    -0.72500
O553        O  0.95507986  0.15390397  0.96652472    -0.72500
O554        O  0.03746241  0.07564792  0.96369871    -0.72500
O555        O  0.95650554  0.07345971  0.96272162    -0.72400
O556        O  0.03548460  0.15579739  0.96723563    -0.72600
V557        V  0.99797493  0.11198485  0.53820609     1.35200
V558        V  0.99611116  0.11454086  0.96640193     1.35200
C559        C  0.05019687  0.16914371  0.50659462     0.76800
C560        C  0.94393531  0.05764807  0.99858887     0.76900
C561        C  0.05345577  0.06180972  0.50131411     0.76700
C562        C  0.94134850  0.16589967  0.00347518     0.76700
O563        O  0.18437564  0.94101623  0.53003839    -0.72400
O564        O  0.10147345  0.01846238  0.53576281    -0.72600
O565        O  0.10351513  0.93841840  0.53818920    -0.72500
O566        O  0.18253785  0.01992381  0.52862814    -0.72500
O567        O  0.17755653  0.01835053  0.95597714    -0.72500
O568        O  0.09674977  0.93831008  0.96519568    -0.72500
O569        O  0.09638452  0.01827663  0.96189192    -0.72400
O570        O  0.17752944  0.93943456  0.95826505    -0.72600
V571        V  0.14269352  0.97946121  0.53179188     1.35200
V572        V  0.13693138  0.97864922  0.96176665     1.35200
C573        C  0.19590888  0.92799230  0.49252287     0.76800
C574        C  0.08440559  0.03180468  0.99884301     0.76900
C575        C  0.08664000  0.92445933  0.50342778     0.76700
C576        C  0.19483802  0.03177393  0.99091704     0.76700
C577        C  0.18171302  0.58233244  0.97521553     0.85800
C578        C  0.15042167  0.61582827  0.97962287    -0.54400
C579        C  0.15739031  0.64055676  0.51431840     0.08800
C580        C  0.19424689  0.62819354  0.54332776     0.19700
C581        C  0.22207084  0.60509078  0.97399989    -0.55100
C582        C  0.22861012  0.62710340  0.50898892     0.08900
C583        C  0.18123172  0.56104239  0.02057858    -0.54700
C584        C  0.18720839  0.58391530  0.55683684     0.09400
H585        H  0.12653664  0.62189140  0.95562480     0.14000
H586        H  0.20048534  0.64826267  0.57207723    -0.00300
H587        H  0.24159967  0.60497002  0.94501970     0.14300
H588        H  0.17372688  0.52793268  0.52489998     0.14000
C589        C  0.39585923  0.79889235  0.52862614     0.85800
C590        C  0.36476677  0.83265835  0.52502716    -0.54400
C591        C  0.33854175  0.83007628  0.99260002     0.08800
C592        C  0.34627713  0.79426353  0.96159943     0.19700
C593        C  0.36976931  0.76091343  0.52914080    -0.55100
C594        C  0.34491215  0.75840003  0.99428719     0.08900
C595        C  0.41626925  0.79919194  0.48281839    -0.54700
C596        C  0.39085920  0.79829308  0.94753489     0.09400
H597        H  0.36088978  0.85626465  0.54895875     0.14000
H598        H  0.32530435  0.79206327  0.93246604    -0.00300
H599        H  0.37088449  0.73952649  0.55665812     0.14300
H600        H  0.44948393  0.80431562  0.97857748     0.14000
C601        C  0.52659423  0.78671942  0.70371867     0.01600
C602        C  0.48433718  0.78970794  0.69815244     0.01600
C603        C  0.45916636  0.78850250  0.73594891    -0.18900
C604        C  0.47535594  0.78664860  0.77958920     0.01600
C605        C  0.51757833  0.78461860  0.78513675     0.01600
C606        C  0.54264050  0.78347805  0.74734250    -0.18900
H607        H  0.57499379  0.78189036  0.75206537     0.03600
H608        H  0.42684198  0.79073629  0.73136561     0.03600
C609        C  0.60680651  0.78552155  0.95428924     0.85800
C610        C  0.63932438  0.81845415  0.95766078    -0.54400
C611        C  0.66663219  0.81563435  0.49131087     0.08800
C612        C  0.65707319  0.78033701  0.52242824     0.19700
C613        C  0.63145984  0.74675790  0.95466854    -0.55100
C614        C  0.65843525  0.74455106  0.49001191     0.08900
C615        C  0.58601681  0.78633115  0.99976943    -0.54700
C616        C  0.61224791  0.78510602  0.53540158     0.09400
H617        H  0.64408003  0.84196486  0.93338949     0.14000
H618        H  0.67804791  0.77840411  0.55163524    -0.00300
H619        H  0.62794531  0.72430906  0.92894501     0.14300
H620        H  0.55448965  0.79244575  0.50287762     0.14000
C621        C  0.82572073  0.57651090  0.55345312     0.85800
C622        C  0.85477499  0.61231571  0.55630319    -0.54400
C623        C  0.85394143  0.63735400  0.02047825     0.08800
C624        C  0.82156709  0.62553025  0.98566740     0.19700
C625        C  0.78418571  0.59641456  0.54685780    -0.55100
C626        C  0.78306678  0.62324454  0.01409926     0.08900
C627        C  0.83409468  0.55690364  0.50839837    -0.54700
C628        C  0.83116325  0.58208139  0.97230439     0.09400
H629        H  0.87478845  0.61754860  0.58474941     0.14000
H630        H  0.81982733  0.64646786  0.95676066    -0.00300
H631        H  0.75889078  0.59198418  0.56869642     0.14300
H632        H  0.84102621  0.52511626  0.00415363     0.14000
C633        C  0.39331656  0.16750628  0.94060415     0.85800
C634        C  0.36054124  0.13502101  0.93804238    -0.54400
C635        C  0.33486041  0.13461875  0.47353269     0.08800
C636        C  0.34465226  0.16564868  0.50956031     0.19700
C637        C  0.37006763  0.20670751  0.94785862    -0.55100
C638        C  0.34296556  0.20538266  0.48309193     0.08900
C639        C  0.41467180  0.16117876  0.98601573    -0.54700
C640        C  0.38953316  0.15938536  0.52244410     0.09400
H641        H  0.35766762  0.11453485  0.91013007     0.14000
H642        H  0.32428080  0.16336279  0.53857976    -0.00300
H643        H  0.37559909  0.23428790  0.93059570     0.14300
H644        H  0.44718064  0.15737631  0.49030221     0.14000
C645        C  0.17729244  0.36812371  0.55779281     0.85800
C646        C  0.14620445  0.33432551  0.55553843    -0.54400
C647        C  0.14593823  0.31141373  0.01760644     0.08800
C648        C  0.17804642  0.32427807  0.98386665     0.19700
C649        C  0.21827819  0.34797194  0.55038287    -0.55100
C650        C  0.21743455  0.32215467  0.01133317     0.08900
C651        C  0.17076834  0.39201008  0.51383671    -0.54700
C652        C  0.17025973  0.36899333  0.97540806     0.09400
H653        H  0.12544952  0.32799038  0.58257102     0.14000
H654        H  0.17845200  0.30589676  0.95302240    -0.00300
H655        H  0.24443637  0.35162465  0.57203104     0.14300
H656        H  0.16705274  0.42321481  0.01306532     0.14000
C657        C  0.15825412  0.45408710  0.80559736     0.01600
C658        C  0.16385770  0.49554117  0.80802301     0.01600
C659        C  0.16682807  0.51852263  0.76859526    -0.18900
C660        C  0.16459821  0.50085983  0.72598451     0.01600
C661        C  0.15773637  0.45913955  0.72343375     0.01600
C662        C  0.15382308  0.43662194  0.76338050    -0.18900
H663        H  0.14938043  0.40469820  0.76159156     0.03600
H664        H  0.17233599  0.55022196  0.77123527     0.03600
C665        C  0.48247752  0.15433884  0.77408826     0.01600
C666        C  0.52485161  0.15235849  0.77042613     0.01600
C667        C  0.54127054  0.14857558  0.72743684    -0.18900
C668        C  0.51639052  0.14612802  0.68876581     0.01600
C669        C  0.47408233  0.14828715  0.69282394     0.01600
C670        C  0.45771479  0.15221701  0.73552816    -0.18900
H671        H  0.42532411  0.15403298  0.73882609     0.03600
H672        H  0.57367355  0.14792140  0.72391608     0.03600
C673        C  0.60552855  0.14518034  0.52171300     0.85800
C674        C  0.63738547  0.11211956  0.51652670    -0.54400
C675        C  0.66338874  0.12120968  0.98344955     0.08800
C676        C  0.65553208  0.15941692  0.95630208     0.19700
C677        C  0.63081885  0.18327739  0.52581636    -0.55100
C678        C  0.65700193  0.19250469  0.99230503     0.08900
C679        C  0.58515245  0.14802378  0.47538940    -0.54700
C680        C  0.61071464  0.15672043  0.94090619     0.09400
H681        H  0.64205720  0.08708893  0.53891911     0.14000
H682        H  0.67713198  0.16271039  0.92859844    -0.00300
H683        H  0.62780897  0.20306813  0.55423158     0.14300
H684        H  0.55248340  0.14668144  0.96990820     0.14000
C685        C  0.81673400  0.37063228  0.97715047     0.85800
C686        C  0.84687179  0.33589606  0.97451266    -0.54400
C687        C  0.84623294  0.30971729  0.51127574     0.08800
C688        C  0.81327942  0.31945425  0.54522064     0.19700
C689        C  0.77592278  0.34926092  0.98212996    -0.55100
C690        C  0.77460050  0.31914057  0.51567793     0.08900
C691        C  0.82437495  0.38973707  0.02277955    -0.54700
C692        C  0.82107929  0.36357435  0.55866165     0.09400
H693        H  0.86655485  0.33158474  0.94611927     0.14000
H694        H  0.81260337  0.29841986  0.57398585    -0.00300
H695        H  0.75164928  0.35117629  0.95777343     0.14300
H696        H  0.82702458  0.42092086  0.52654426     0.14000
C697        C  0.83695221  0.48957073  0.72228323     0.01600
C698        C  0.83360964  0.44780934  0.72771141     0.01600
C699        C  0.83236301  0.43209513  0.77143905    -0.18900
C700        C  0.83388975  0.45720307  0.80907454     0.01600
C701        C  0.83842494  0.49870151  0.80351624     0.01600
C702        C  0.83996281  0.51449020  0.75996821    -0.18900
H703        H  0.84194922  0.54644750  0.75530437    -0.00800
H704        H  0.82941691  0.40024019  0.77630264     0.03600
C705        C  0.82781324  0.37852226  0.60541324    -0.06800
C706        C  0.79630279  0.37630057  0.63631325    -0.17900
C707        C  0.79797008  0.39698476  0.67738969     0.10400
C708        C  0.83190767  0.42077417  0.68786919    -0.06700
C709        C  0.86445827  0.42073611  0.65838129    -0.17900
C710        C  0.86282813  0.40026348  0.61757088     0.10500
S711        S  0.75546751  0.39499902  0.71449855    -0.32900
S712        S  0.90636735  0.40431127  0.58231207    -0.32900
H713        H  0.89951150  0.36945268  0.55769252     0.28500
H714        H  0.73487187  0.36411765  0.69223078     0.28500
H715        H  0.76927153  0.36047544  0.62706799     0.19100
H716        H  0.89125005  0.43763261  0.66684107     0.19100
C717        C  0.82036281  0.39963272  0.93722828    -0.06800
C718        C  0.78626474  0.40999696  0.91086014    -0.17900
C719        C  0.78975357  0.42909776  0.86938726     0.10400
C720        C  0.82814555  0.43972791  0.85400559    -0.06700
C721        C  0.86175707  0.43397909  0.88200113    -0.17900
C722        C  0.85826010  0.41508545  0.92390574     0.10500
S723        S  0.74377162  0.43764033  0.83759050    -0.32900
S724        S  0.90271965  0.41062631  0.95922013    -0.32900
H725        H  0.92810665  0.43484401  0.93321868     0.28500
H726        H  0.75820080  0.46541222  0.80634270     0.28500
H727        H  0.75618431  0.40373686  0.92181071     0.19100
H728        H  0.89095107  0.44353103  0.87040947     0.19100
C729        C  0.68860449  0.22445188  0.99656007    -0.06800
C730        C  0.70304703  0.23230191  0.54036639    -0.17900
C731        C  0.72947120  0.26416190  0.54771540     0.10400
C732        C  0.74685397  0.28394965  0.51093244    -0.06700
C733        C  0.73576198  0.27328040  0.96708595    -0.17900
C734        C  0.70629795  0.24418343  0.95954014     0.10500
S735        S  0.73649623  0.28044201  0.60455210    -0.32900
S736        S  0.69147855  0.23672404  0.90177159    -0.32900
H737        H  0.65049697  0.23248124  0.91089663     0.28500
H738        H  0.72478740  0.31940691  0.59312155     0.28500
H739        H  0.69166854  0.21694146  0.56962384     0.19100
H740        H  0.74991828  0.28648380  0.93800448     0.19100
C741        C  0.59543637  0.16038650  0.89378172    -0.06800
C742        C  0.60140165  0.12848540  0.86446485    -0.17900
C743        C  0.57924889  0.12516760  0.82407720     0.10400
C744        C  0.55193080  0.15553068  0.81103172    -0.06700
C745        C  0.54865308  0.18901477  0.83872955    -0.17900
C746        C  0.56904022  0.19137780  0.88014632     0.10500
S747        S  0.58464987  0.07981483  0.79290760    -0.32900
S748        S  0.55812255  0.23418177  0.91424244    -0.32900
H749        H  0.58913783  0.22988118  0.94617718     0.28500
H750        H  0.54368710  0.07652452  0.78106905     0.28500
H751        H  0.62108518  0.10437059  0.87472034     0.19100
H752        H  0.52860729  0.21296115  0.82885608     0.19100
C753        C  0.53532883  0.14246846  0.64426668    -0.06800
C754        C  0.52953479  0.17288952  0.61251112    -0.17900
C755        C  0.54863251  0.17224479  0.57089523     0.10400
C756        C  0.57647592  0.14144596  0.56135686    -0.06700
C757        C  0.57953297  0.10953012  0.59235309    -0.17900
C758        C  0.55966986  0.10980708  0.63334165     0.10500
S759        S  0.53806100  0.21235840  0.53180582    -0.32900
S760        S  0.56790383  0.06775296  0.67044503    -0.32900
H761        H  0.53236490  0.07109732  0.69501359     0.28500
H762        H  0.50138595  0.22398579  0.55082232     0.28500
H763        H  0.51093691  0.19807170  0.62097029     0.19100
H764        H  0.59770488  0.08381024  0.58607781     0.19100
C765        C  0.16402406  0.38721658  0.93013641    -0.06800
C766        C  0.19390001  0.38237658  0.89779538    -0.17900
C767        C  0.19244835  0.40322676  0.85681322     0.10400
C768        C  0.15958768  0.42864491  0.84690463    -0.06700
C769        C  0.12876143  0.43202197  0.87842923    -0.17900
C770        C  0.13063466  0.41186520  0.91978095     0.10500
S771        S  0.23456781  0.39767249  0.81977101    -0.32900
S772        S  0.08940132  0.41913197  0.95770719    -0.32900
H773        H  0.09244011  0.38204943  0.97953118     0.28500
H774        H  0.23429049  0.43685963  0.80300555     0.28500
H775        H  0.21978252  0.36400589  0.90551967     0.19100
H776        H  0.10328037  0.45108666  0.87107108     0.19100
C777        C  0.16096460  0.43677051  0.68071209    -0.06800
C778        C  0.18898423  0.40595549  0.67989103    -0.17900
C779        C  0.19282552  0.38151260  0.64261605     0.10400
C780        C  0.17307890  0.39195834  0.60143022    -0.06700
C781        C  0.14360951  0.42218654  0.60301557    -0.17900
C782        C  0.13651861  0.44373988  0.64245613     0.10500
S783        S  0.21773944  0.33461051  0.65241949    -0.32900
S784        S  0.09424138  0.47722724  0.64467356    -0.32900
H785        H  0.08398982  0.47594564  0.59871602     0.28500
H786        H  0.23127722  0.34086029  0.69677475     0.28500
H787        H  0.20656565  0.39970287  0.70997051     0.19100
H788        H  0.12459092  0.42767179  0.57391570     0.19100
C789        C  0.31203080  0.23714341  0.48989877    -0.06800
C790        C  0.29432151  0.24007458  0.53224445    -0.17900
C791        C  0.26247325  0.26613439  0.53978769     0.10400
C792        C  0.24924725  0.29234669  0.00340997    -0.06700
C793        C  0.26578571  0.28926226  0.96076041    -0.17900
C794        C  0.29482237  0.26049229  0.95156187     0.10500
S795        S  0.23220031  0.25827570  0.58881458    -0.32900
S796        S  0.30573908  0.25426863  0.89281524    -0.32900
H797        H  0.30575328  0.21257091  0.89489918     0.28500
H798        H  0.25187753  0.22407237  0.60532547     0.28500
H799        H  0.30415997  0.22098243  0.55946893     0.19100
H800        H  0.25463685  0.30815472  0.93381864     0.19100
C801        C  0.40558234  0.15578965  0.56910041    -0.06800
C802        C  0.42011316  0.11879469  0.58411204    -0.17900
C803        C  0.44004417  0.11481659  0.62576413     0.10400
C804        C  0.44665659  0.14872626  0.65273036    -0.06700
C805        C  0.43008658  0.18523694  0.63884315    -0.17900
C806        C  0.41033388  0.18924845  0.59716077     0.10500
S807        S  0.45645190  0.06583152  0.64249097    -0.32900
S808        S  0.39458868  0.23837995  0.58028864    -0.32900
H809        H  0.40943147  0.23554431  0.53643325     0.28500
H810        H  0.45505510  0.07262402  0.68900189     0.28500
H811        H  0.41643402  0.09293732  0.56288211     0.19100
H812        H  0.43496513  0.21140301  0.65930627     0.19100
C813        C  0.42065419  0.16580647  0.89945198    -0.06800
C814        C  0.41987686  0.19669256  0.86692459    -0.17900
C815        C  0.44099819  0.19418946  0.82703628     0.10400
C816        C  0.46296808  0.15966073  0.81781177    -0.06700
C817        C  0.46490377  0.12894714  0.84971034    -0.17900
C818        C  0.44406496  0.13145299  0.89029775     0.10500
S819        S  0.43789712  0.23615324  0.78882733    -0.32900
S820        S  0.44626453  0.08943153  0.92862672    -0.32900
H821        H  0.46947895  0.06425334  0.90178786     0.28500
H822        H  0.47603168  0.23130474  0.76978816     0.28500
H823        H  0.40202120  0.22283553  0.87041798     0.19100
H824        H  0.48202758  0.10256565  0.84207879     0.19100
C825        C  0.83819427  0.52577263  0.84295500    -0.06800
C826        C  0.80080596  0.53763262  0.85955441    -0.17900
C827        C  0.79774634  0.55724508  0.90075318     0.10400
C828        C  0.83293204  0.56695384  0.92551572    -0.06700
C829        C  0.87049578  0.55702101  0.90777689    -0.17900
C830        C  0.87361403  0.53651702  0.86695536     0.10500
S831        S  0.74793622  0.56636663  0.92129093    -0.32900
S832        S  0.92371519  0.52422460  0.84875689    -0.32900
H833        H  0.91381696  0.50135868  0.81097619     0.28500
H834        H  0.75637586  0.55339738  0.96536498     0.28500
H835        H  0.77354335  0.52957325  0.84145363     0.19100
H836        H  0.89760624  0.56399321  0.92678652     0.19100
C837        C  0.82930290  0.54790511  0.59370038    -0.06800
C838        C  0.79439013  0.53309652  0.61458151    -0.17900
C839        C  0.79607048  0.51443928  0.65647263     0.10400
C840        C  0.83366254  0.50830256  0.67755777    -0.06700
C841        C  0.86886312  0.51865248  0.65498794    -0.17900
C842        C  0.86719633  0.53677325  0.61242511     0.10500
S843        S  0.74891251  0.49969985  0.68114670    -0.32900
S844        S  0.91350990  0.54373951  0.58203500    -0.32900
H845        H  0.93975635  0.52865572  0.61541768     0.28500
H846        H  0.76088270  0.50313781  0.72634956     0.28500
H847        H  0.76514962  0.53576198  0.59878571     0.19100
H848        H  0.89764316  0.51188813  0.67063542     0.19100
C849        C  0.68854309  0.71165790  0.49421107    -0.06800
C850        C  0.70011777  0.69957777  0.53758670    -0.17900
C851        C  0.73049144  0.67148901  0.54505957     0.10400
C852        C  0.74861051  0.65166954  0.00889449    -0.06700
C853        C  0.73839145  0.66473818  0.96539205    -0.17900
C854        C  0.70927027  0.69416483  0.95759529     0.10500
S855        S  0.74781501  0.66401516  0.60241634    -0.32900
S856        S  0.70338941  0.71317314  0.90093126    -0.32900
H857        H  0.72407614  0.68259919  0.87901921     0.28500
H858        H  0.71515595  0.68201148  0.62387641     0.28500
H859        H  0.68615171  0.71319075  0.56618017     0.19100
H860        H  0.75426066  0.65272638  0.93712369     0.19100
C861        C  0.55424487  0.78767405  0.66440029    -0.06800
C862        C  0.56819466  0.75147430  0.64726305    -0.17900
C863        C  0.58817350  0.74980048  0.60599464     0.10400
C864        C  0.59633476  0.78527269  0.58195428    -0.06700
C865        C  0.58414330  0.82163532  0.60016994    -0.17900
C866        C  0.56353585  0.82326720  0.64100994     0.10500
S867        S  0.59988745  0.70128736  0.58449544    -0.32900
S868        S  0.54920462  0.87165695  0.66075397    -0.32900
H869        H  0.54949689  0.86145007  0.70651632     0.28500
H870        H  0.59035456  0.71017690  0.53944380     0.28500
H871        H  0.56107057  0.72400129  0.66470944     0.19100
H872        H  0.58987039  0.84897375  0.58179630     0.19100
C873        C  0.53635981  0.78709723  0.83021116    -0.06800
C874        C  0.53175334  0.75557798  0.86073115    -0.17900
C875        C  0.55123303  0.75602647  0.90286807     0.10400
C876        C  0.57774832  0.78792404  0.91380653    -0.06700
C877        C  0.57816590  0.82121314  0.88466694    -0.17900
C878        C  0.55816814  0.82103995  0.84333104     0.10500
S879        S  0.54205422  0.71546256  0.94171673    -0.32900
S880        S  0.56212226  0.86526366  0.80880646    -0.32900
H881        H  0.52514326  0.86114627  0.78596102     0.28500
H882        H  0.51067048  0.69733956  0.91711372     0.28500
H883        H  0.51337901  0.73032051  0.85109441     0.19100
H884        H  0.59348728  0.84835955  0.89339526     0.19100
C885        C  0.40550465  0.79822114  0.90044939    -0.06800
C886        C  0.40319063  0.76292218  0.87558067    -0.17900
C887        C  0.42460878  0.75850328  0.83542060     0.10400
C888        C  0.44843765  0.79035312  0.81918737    -0.06700
C889        C  0.44856646  0.82640306  0.84272986    -0.17900
C890        C  0.42743936  0.83069066  0.88281639     0.10500
S891        S  0.42161877  0.71093167  0.80787229    -0.32900
S892        S  0.43032385  0.87818486  0.91049790    -0.32900
H893        H  0.39254478  0.87542600  0.93099021     0.28500
H894        H  0.45938177  0.71234612  0.78732140     0.28500
H895        H  0.38660172  0.73779524  0.88893761     0.19100
H896        H  0.46598724  0.85127217  0.83024503     0.19100
C897        C  0.42491220  0.80009409  0.56920824    -0.06800
C898        C  0.42419482  0.83185145  0.60010954    -0.17900
C899        C  0.44370406  0.82959039  0.64178014     0.10400
C900        C  0.46581659  0.79521205  0.65315884    -0.06700
C901        C  0.46986504  0.76505634  0.62131427    -0.17900
C902        C  0.45081174  0.76756320  0.57914123     0.10500
S903        S  0.43768880  0.87142587  0.67906530    -0.32900
S904        S  0.45899437  0.72800745  0.53938318    -0.32900
H905        H  0.49238837  0.71087443  0.56161255     0.28500
H906        H  0.47175261  0.86493475  0.70640239     0.28500
H907        H  0.40854081  0.85912905  0.59301140     0.19100
H908        H  0.48701227  0.73876440  0.63012667     0.19100
C909        C  0.25937986  0.65911636  0.50532132    -0.06800
C910        C  0.24632373  0.69950493  0.99599045    -0.17900
C911        C  0.27291932  0.73083026  0.98729299     0.10400
C912        C  0.31489174  0.72499853  0.99363495    -0.06700
C913        C  0.32779803  0.68478912  0.50228164    -0.17900
C914        C  0.30131676  0.65251899  0.50752469     0.10500
S915        S  0.25137091  0.77700115  0.96770194    -0.32900
S916        S  0.32320583  0.60468443  0.52007188    -0.32900
H917        H  0.29431223  0.58189664  0.49725194     0.28500
H918        H  0.21082635  0.76854061  0.97690858     0.28500
H919        H  0.21447399  0.70462277  0.99296893     0.19100
H920        H  0.35985614  0.67968088  0.50598431     0.19100
C921        C  0.17258734  0.52586575  0.68518128    -0.06800
C922        C  0.20453286  0.51529654  0.65732093    -0.17900
C923        C  0.21159958  0.53533697  0.61681291     0.10400
C924        C  0.18689591  0.56773469  0.60362109    -0.06700
C925        C  0.15683290  0.58032282  0.63293688    -0.17900
C926        C  0.14906938  0.55959224  0.67315502     0.10500
S927        S  0.25229403  0.51747942  0.58308342    -0.32900
S928        S  0.10682769  0.57605456  0.70561289    -0.32900
H929        H  0.09578829  0.53836846  0.72211997     0.28500
H930        H  0.26028967  0.55438750  0.56283375     0.28500
H931        H  0.22374563  0.49053775  0.66676823     0.19100
H932        H  0.13741743  0.60477623  0.62296069     0.19100
C933        C  0.16681164  0.51528307  0.85187034    -0.06800
C934        C  0.20205154  0.51084391  0.87766086    -0.17900
C935        C  0.20630537  0.52927135  0.91957928     0.10400
C936        C  0.17533632  0.55467460  0.93492228    -0.06700
C937        C  0.13845241  0.55487281  0.91077395    -0.17900
C938        C  0.13407903  0.53608779  0.86947815     0.10500
S939        S  0.25096196  0.51916328  0.95306765    -0.32900
S940        S  0.08581481  0.54013753  0.84109256    -0.32900
H941        H  0.08816113  0.50549351  0.81519267     0.28500
H942        H  0.26924365  0.49271648  0.92317999     0.28500
H943        H  0.22615542  0.49276256  0.86476961     0.19100
H944        H  0.11199386  0.56888152  0.92384045     0.19100
C945        C  0.23141984  0.90172732  0.48991057    -0.06800
C946        C  0.24203116  0.87964747  0.52823651    -0.17900
C947        C  0.27578727  0.85523523  0.52905634     0.10400
C948        C  0.30111068  0.85396517  0.99233337    -0.06700
C949        C  0.29121757  0.87657579  0.95418117    -0.17900
C950        C  0.25763931  0.90171357  0.95366843     0.10500
S951        S  0.28433156  0.82694644  0.58006639    -0.32900
S952        S  0.25130039  0.93370160  0.90531248    -0.32900
H953        H  0.24483022  0.96810119  0.93092961     0.28500
H954        H  0.29561380  0.79193267  0.55835136     0.28500
H955        H  0.22356205  0.88103560  0.55793112     0.19100
H956        H  0.31077808  0.87596150  0.92534568     0.19100
C957        C  0.29945575  0.10756008  0.47646107    -0.06800
C958        C  0.29439559  0.08539501  0.51600492    -0.17900
C959        C  0.26152888  0.05976440  0.52138574     0.10400
C960        C  0.23153522  0.05722053  0.48715507    -0.06700
C961        C  0.23661107  0.07954127  0.94722705    -0.17900
C962        C  0.27029420  0.10429224  0.94138468     0.10500
S963        S  0.26137540  0.02947990  0.57156579    -0.32900
S964        S  0.27459722  0.13267098  0.88989686    -0.32900
H965        H  0.23874866  0.11942748  0.86925794     0.28500
H966        H  0.25294963  0.99400361  0.54836894     0.28500
H967        H  0.31697636  0.08719749  0.54253062     0.19100
H968        H  0.21454713  0.07695112  0.92034275     0.19100
C969        C  0.91446237  0.20050106  0.50793902    -0.06800
C970        C  0.91519936  0.22425821  0.54672904    -0.17900
C971        C  0.89286606  0.25958996  0.54915724     0.10400
C972        C  0.86949944  0.27194262  0.51176537    -0.06700
C973        C  0.86797471  0.24854320  0.97079771    -0.17900
C974        C  0.88928039  0.21277539  0.96831688     0.10500
S975        S  0.89672132  0.28978119  0.59897791    -0.32900
S976        S  0.88427063  0.18495948  0.91698048    -0.32900
H977        H  0.88284965  0.14760784  0.93852280     0.28500
H978        H  0.91801295  0.26209214  0.62570336     0.28500
H979        H  0.93464021  0.21595283  0.57467922     0.19100
H980        H  0.85026905  0.25819170  0.94191215     0.19100
C981        C  0.12146770  0.27466283  0.01254504    -0.06800
C982        C  0.12433564  0.24738968  0.54881779    -0.17900
C983        C  0.10230044  0.21185550  0.54711710     0.10400
C984        C  0.07862813  0.20331518  0.50849835    -0.06700
C985        C  0.07500765  0.23178675  0.97163509    -0.17900
C986        C  0.09749197  0.26715922  0.97406732     0.10500
S987        S  0.10604274  0.17748491  0.59401735    -0.32900
S988        S  0.09310260  0.30348286  0.92929920    -0.32900
H989        H  0.07098289  0.27955527  0.89923649     0.28500
H990        H  0.13432120  0.19907078  0.61967015     0.28500
H991        H  0.14185319  0.25428769  0.57865258     0.19100
H992        H  0.05533035  0.22679132  0.94295463     0.19100
C993        C  0.70433205  0.83940245  0.49441935    -0.06800
C994        C  0.71187252  0.86163303  0.53315031    -0.17900
C995        C  0.74538464  0.88709403  0.53639684     0.10400
C996        C  0.77263196  0.88985090  0.50003875    -0.06700
C997        C  0.76251276  0.86836879  0.96274863    -0.17900
C998        C  0.72923437  0.84298860  0.95907048     0.10500
S999        S  0.75067955  0.91761463  0.58594153    -0.32900
S1000       S  0.72120706  0.81637468  0.90709763    -0.32900
H1001       H  0.75577951  0.82977966  0.88480317     0.28500
H1002       H  0.72072873  0.89887074  0.61152727     0.28500
H1003       H  0.69041856  0.86016825  0.56018324     0.19100
H1004       H  0.78164213  0.87254405  0.93395780     0.19100
C1005       C  0.77129558  0.04851175  0.48870012    -0.06800
C1006       C  0.73460295  0.03055768  0.47680990    -0.17900
C1007       C  0.69935304  0.05289208  0.47216401     0.10400
C1008       C  0.70014088  0.09664475  0.98008349    -0.06700
C1009       C  0.73751561  0.11430698  0.99018808    -0.17900
C1010       C  0.77245358  0.09124127  0.99527414     0.10500
S1011       S  0.65364305  0.02650505  0.45791754    -0.32900
S1012       S  0.81885363  0.11669002  0.00894331    -0.32900
H1013       H  0.84509350  0.08831924  0.99118425     0.28500
H1014       H  0.63315428  0.05900487  0.43867556     0.28500
H1015       H  0.73333400  0.99867514  0.47159182     0.19100
H1016       H  0.73925456  0.14611598  0.99564527     0.19100
C1017       C  0.87766517  0.67490613  0.01768339    -0.06800
C1018       C  0.89878534  0.68299735  0.97828670    -0.17900
C1019       C  0.92350100  0.71682370  0.97437400     0.10400
C1020       C  0.92707593  0.74366925  0.01101117    -0.06700
C1021       C  0.90429093  0.73621432  0.54942247    -0.17900
C1022       C  0.87911661  0.70280219  0.55320306     0.10500
S1023       S  0.95171434  0.72333280  0.92325297    -0.32900
S1024       S  0.84880875  0.69708571  0.60278110    -0.32900
H1025       H  0.86231213  0.73135878  0.62529110     0.28500
H1026       H  0.93328028  0.69261529  0.89852138     0.28500
H1027       H  0.89679664  0.66194187  0.95096723     0.19100
H1028       H  0.90620167  0.75707995  0.57689484     0.19100
C1029       C  0.13799324  0.68062274  0.51488533    -0.06800
C1030       C  0.12559342  0.69635373  0.55589871    -0.17900
C1031       C  0.10338707  0.73183674  0.55761441     0.10400
C1032       C  0.09161553  0.75153685  0.51709438    -0.06700
C1033       C  0.10636907  0.73851560  0.97658409    -0.17900
C1034       C  0.13034033  0.70453384  0.97467638     0.10500
S1035       S  0.09098084  0.74968611  0.61258300    -0.32900
S1036       S  0.15062559  0.69382106  0.91988581    -0.32900
H1037       H  0.18499289  0.67309275  0.93413726     0.28500
H1038       H  0.10403041  0.78873832  0.60335504     0.28500
H1039       H  0.13250164  0.68046522  0.58683305     0.19100
H1040       H  0.10030573  0.75475641  0.94566864     0.19100
loop_ 
_geom_bond_atom_site_label_1 
_geom_bond_atom_site_label_2 
_geom_bond_distance 
_geom_bond_site_symmetry_2 
_ccdc_geom_bond_type 
O1            V9   1.907       .  S
O1           C11   1.270       .  A
O2            V9   1.908   1_655  S
O2          C532   1.267       .  A
O3            V9   1.892       .  S
O3           C13   1.261       .  A
O4            V9   1.894   1_655  S
O4          C534   1.261       .  A
O5           V10   1.913   1_655  S
O5           C14   1.270       .  A
O6           V10   1.917       .  S
O6          C533   1.269       .  A
O7           V10   1.900   1_655  S
O7           C12   1.262       .  A
O8           V10   1.896       .  S
O8          C531   1.261       .  A
V9          V530   2.084       .  T
V10         V529   2.084   1_554  T
C11         O528   1.261       .  A
C11        C1032   1.495       .  S
C12         O522   1.268   1_554  A
C12         C546   1.474       .  S
C13         O526   1.269       .  A
C13         C575   1.472       .  S
C14         O524   1.260   1_554  A
C14        C1020   1.492       .  S
O15          V23   1.912   1_545  S
O15          C25   1.267   1_554  A
O16          V23   1.911       .  S
O16         C546   1.268       .  A
O17          V23   1.892   1_545  S
O17          C27   1.262   1_554  A
O18          V23   1.897       .  S
O18         C548   1.261       .  A
O19          V24   1.909       .  S
O19          C28   1.269       .  A
O20          V24   1.914   1_545  S
O20         C547   1.268       .  A
O21          V24   1.899       .  S
O21          C26   1.262       .  A
O22          V24   1.891   1_545  S
O22         C545   1.261       .  A
V23         V544   2.087   1_554  T
V24         V543   2.087       .  T
C25         O542   1.261       .  A
C25         C485   1.471       .  S
C26         O536   1.268       .  A
C26         C532   1.472       .  S
C27         O540   1.267       .  A
C27         C560   1.469       .  S
C28         O538   1.261       .  A
C28         C996   1.491       .  S
O29          V37   1.895   1_455  S
O29          C39   1.263       .  A
O30          V37   1.896       .  S
O30         C560   1.264   1_554  A
O31          V37   1.899   1_455  S
O31          C41   1.263   1_554  A
O32          V37   1.897       .  S
O32         C562   1.265       .  A
O33          V38   1.904       .  S
O33          C42   1.266       .  A
O34          V38   1.900   1_455  S
O34         C561   1.265       .  A
O35          V38   1.906       .  S
O35          C40   1.264       .  A
O36          V38   1.902   1_455  S
O36         C559   1.265       .  A
V37         V558   2.086   1_554  T
V38         V557   2.086       .  T
C39         O556   1.266   1_554  A
C39         C464   1.485       .  S
C40         O550   1.265       .  A
C40         C547   1.471       .  S
C41         O554   1.265       .  A
C41         C574   1.467       .  S
C42         O552   1.264       .  A
C42         C969   1.488       .  S
O43          V51   1.901       .  S
O43          C53   1.267   1_554  A
O44          V51   1.904   1_545  S
O44         C574   1.265   1_554  A
O45          V51   1.905       .  S
O45          C55   1.263       .  A
O46          V51   1.898   1_545  S
O46         C576   1.263   1_554  A
O47          V52   1.905   1_545  S
O47          C56   1.267       .  A
O48          V52   1.903       .  S
O48         C575   1.267       .  A
O49          V52   1.895   1_545  S
O49          C54   1.262       .  A
O50          V52   1.890       .  S
O50         C573   1.260       .  A
V51         V572   2.086   1_554  T
V52         V571   2.086       .  T
C53         O570   1.261       .  A
C53         C425   1.481       .  S
C54         O564   1.265       .  A
C54         C561   1.465       .  S
C55         O568   1.267   1_554  A
C55         C533   1.473       .  S
C56         O566   1.264       .  A
C56         C960   1.489       .  S
C57          C58   1.542       .  S
C57          C63   1.525       .  S
C57          C61   1.544       .  S
C57         C416   1.535       .  S
C58          H65   1.078       .  S
C58         C579   1.358       .  D
C59          C60   1.547       .  S
C59         C578   1.358   1_554  D
C59         C509   1.495       .  S
C60          C64   1.558       .  S
C60          C62   1.543       .  S
C60          H66   1.111       .  S
C61          H67   1.087       .  S
C61         C582   1.366       .  D
C62         C581   1.366   1_554  D
C62         C389   1.485       .  S
C63         H588   1.087       .  S
C63         C584   1.366       .  D
C64         C583   1.366       .  D
C64         C404   1.493       .  S
H68         C583   1.087       .  S
C69          C70   1.540       .  S
C69          C75   1.529   1_554  S
C69          C73   1.540       .  S
C69         C377   1.536       .  S
C70          H77   1.080       .  S
C70         C591   1.359   1_554  D
C71          C72   1.546       .  S
C71         C590   1.357       .  D
C71         C428   1.482       .  S
C72          C76   1.553       .  S
C72          C74   1.544       .  S
C72          H78   1.109       .  S
C73          H79   1.087       .  S
C73         C594   1.368   1_554  D
C74         C593   1.367       .  D
C74         C392   1.499       .  S
C75         H600   1.087       .  S
C75         C596   1.366       .  D
C76         C595   1.366       .  D
C76         C365   1.490       .  S
H80         C595   1.086       .  S
C81         C341   1.494       .  S
C81          C82   1.415       .  A
C81          C86   1.400       .  A
C82         C380   1.479       .  S
C82          C83   1.411       .  A
C83          C84   1.402       .  A
C83          H88   1.084       .  S
C84         C368   1.495       .  S
C84          C85   1.413       .  A
C85         C353   1.474       .  S
C85          C86   1.408       .  A
C86          H87   1.084       .  S
C89          C90   1.549       .  S
C89          C95   1.528       .  S
C89          C93   1.538       .  S
C89         C356   1.534       .  S
C90          H97   1.081       .  S
C90         C611   1.362       .  D
C91          C92   1.535   1_556  S
C91         C610   1.361       .  D
C91         C473   1.489       .  S
C92          C96   1.550       .  S
C92          C94   1.544   1_554  S
C92          H98   1.110       .  S
C93          H99   1.083       .  S
C93         C614   1.364       .  D
C94         C613   1.366       .  D
C94         C329   1.494       .  S
C95         H620   1.087       .  S
C95         C616   1.363       .  D
C96         C615   1.364   1_554  D
C96         C344   1.484       .  S
H100        C615   1.087   1_554  S
C101        C102   1.543       .  S
C101        C107   1.528       .  S
C101        C105   1.548       .  S
C101        C317   1.538       .  S
C102        H109   1.085       .  S
C102        C623   1.365       .  D
C103        C104   1.539       .  S
C103        C622   1.365       .  D
C103        C497   1.490       .  S
C104        C108   1.552       .  S
C104        C106   1.543       .  S
C104        H110   1.110       .  S
C105        H111   1.076       .  S
C105        C626   1.363       .  D
C106        C625   1.361       .  D
C106        C332   1.492       .  S
C107        H632   1.087       .  S
C107        C628   1.364   1_554  D
C108        C627   1.364       .  D
C108        C308   1.489       .  S
H112        C627   1.087       .  S
C113        C114   1.543       .  S
C113        C119   1.532       .  S
C113        C117   1.546       .  S
C113        C293   1.538       .  S
C114        H121   1.086       .  S
C114        C635   1.363       .  D
C115        C116   1.532   1_556  S
C115        C634   1.363       .  D
C115        C437   1.489       .  S
C116        C120   1.550       .  S
C116        C118   1.545   1_554  S
C116        H122   1.106       .  S
C117        H123   1.077       .  S
C117        C638   1.361       .  D
C118        C637   1.361       .  D
C118        C269   1.497       .  S
C119        H644   1.087       .  S
C119        C640   1.365       .  D
C120        C639   1.365   1_554  D
C120        C281   1.487       .  S
H124        C639   1.086       .  S
C125        C126   1.539       .  S
C125        C131   1.542       .  S
C125        C129   1.539       .  S
C125        C260   1.539       .  S
C126        H133   1.086       .  S
C126        C647   1.367       .  D
C127        C128   1.536       .  S
C127        C646   1.367       .  D
C127        C461   1.486       .  S
C128        C132   1.545       .  S
C128        C130   1.536       .  S
C128        H134   1.110       .  S
C129        H135   1.082       .  S
C129        C650   1.362       .  D
C130        C649   1.363       .  D
C130        C272   1.483       .  S
C131        H656   1.086       .  S
C131        C652   1.367   1_554  D
C132        C651   1.368       .  D
C132        C245   1.492       .  S
H136        C651   1.086       .  S
C137        C248   1.495       .  S
C137        C138   1.408       .  A
C137        C142   1.396       .  A
C138        C413   1.472       .  S
C138        C139   1.407       .  A
C139        C140   1.406       .  A
C139        H144   1.084       .  S
C140        C401   1.502       .  S
C140        C141   1.423       .  A
C141        C257   1.486       .  S
C141        C142   1.413       .  A
C142        H143   1.084       .  S
C145        C296   1.474       .  S
C145        C146   1.415       .  A
C145        C150   1.407       .  A
C146        C224   1.502       .  S
C146        C147   1.404       .  A
C147        C148   1.412       .  A
C147        H152   1.084       .  S
C148        C233   1.481       .  S
C148        C149   1.416       .  A
C149        C284   1.495       .  S
C149        C150   1.399       .  A
C150        H151   1.085       .  S
C153        C154   1.546       .  S
C153        C159   1.530   1_554  S
C153        C157   1.535       .  S
C153        C236   1.539       .  S
C154        H161   1.079       .  S
C154        C675   1.359   1_554  D
C155        C156   1.534       .  S
C155        C674   1.359       .  D
C155        C488   1.481       .  S
C156        C160   1.556       .  S
C156        C158   1.550       .  S
C156        H162   1.105       .  S
C157        H163   1.085       .  S
C157        C678   1.370   1_554  D
C158        C677   1.369       .  D
C158        C209   1.506       .  S
C159        H684   1.087       .  S
C159        C680   1.366       .  D
C160        C679   1.366       .  D
C160        C221   1.491       .  S
H164        C679   1.087       .  S
C165        C166   1.543       .  S
C165        C171   1.527       .  S
C165        C169   1.542       .  S
C165        C197   1.542       .  S
C166        H173   1.086       .  S
C166        C687   1.366       .  D
C167        C168   1.538       .  S
C167        C686   1.367   1_554  D
C167        C452   1.489       .  S
C168        C172   1.559       .  S
C168        C170   1.548       .  S
C168        H174   1.107       .  S
C169        H175   1.079       .  S
C169        C690   1.366       .  D
C170        C689   1.365   1_554  D
C170        C212   1.505       .  S
C171        H696   1.087       .  S
C171        C692   1.366       .  D
C172        C691   1.364       .  D
C172        C185   1.495       .  S
H176        C691   1.087       .  S
C177        C320   1.476       .  S
C177        C178   1.417       .  A
C177        C182   1.410       .  A
C178        C188   1.501       .  S
C178        C179   1.403       .  A
C179        C180   1.408       .  A
C179        H184   1.084       .  S
C180        C200   1.476       .  S
C180        C181   1.413       .  A
C181        C305   1.494       .  S
C181        C182   1.402       .  A
C182        H183   1.084       .  S
C185        C186   1.402       .  A
C185        C190   1.417       .  A
C186        C187   1.410       .  A
C186        H195   1.077       .  S
C187        C188   1.415       .  A
C187        S191   1.805       .  S
C188        C189   1.404       .  A
C189        C190   1.402       .  A
C189        H196   1.083       .  S
C190        S192   1.804       .  S
S191        H194   1.407       .  S
S192        H193   1.403       .  S
C197        C198   1.414       .  A
C197        C202   1.423       .  A
C198        C199   1.395       .  A
C198        H207   1.075       .  S
C199        C200   1.407       .  A
C199        S203   1.808       .  S
C200        C201   1.398       .  A
C201        C202   1.403       .  A
C201        H208   1.082       .  S
C202        S204   1.807       .  S
S203        H206   1.403       .  S
S204        H205   1.407       .  S
C209        C214   1.416       .  A
C209        C730   1.415       .  A
C210        C211   1.400       .  A
C210        C729   1.415   1_554  A
C210        H219   1.082       .  S
C211        C212   1.407       .  A
C211        S215   1.794       .  S
C212        C733   1.413   1_554  A
C213        C214   1.399       .  A
C213        C732   1.412       .  A
C213        H220   1.083       .  S
C214        S216   1.801       .  S
S215        H218   1.406       .  S
S216        H217   1.399       .  S
C221        C222   1.403       .  A
C221        C226   1.418       .  A
C222        C223   1.407       .  A
C222        H231   1.083       .  S
C223        C224   1.416       .  A
C223        S227   1.800       .  S
C224        C225   1.405       .  A
C225        C226   1.403       .  A
C225        H232   1.083       .  S
C226        S228   1.807       .  S
S227        H230   1.406       .  S
S228        H229   1.400       .  S
C233        C234   1.401       .  A
C233        C238   1.408       .  A
C234        C235   1.400       .  A
C234        H243   1.082       .  S
C235        C236   1.422       .  A
C235        S239   1.807       .  S
C236        C237   1.413       .  A
C237        C238   1.395       .  A
C237        H244   1.072       .  S
C238        S240   1.807       .  S
S239        H242   1.408       .  S
S240        H241   1.402       .  S
C245        C246   1.403       .  A
C245        C250   1.416       .  A
C246        C247   1.404       .  A
C246        H255   1.082       .  S
C247        C248   1.416       .  A
C247        S251   1.805       .  S
C248        C249   1.404       .  A
C249        C250   1.403       .  A
C249        H256   1.083       .  S
C250        S252   1.804       .  S
S251        H254   1.405       .  S
S252        H253   1.405       .  S
C257        C258   1.395       .  A
C257        C262   1.408       .  A
C258        C259   1.394       .  A
C258        H267   1.083       .  S
C259        C260   1.427       .  A
C259        S263   1.804       .  S
C260        C261   1.414       .  A
C261        C262   1.404       .  A
C261        H268   1.081       .  S
C262        S264   1.804       .  S
S263        H266   1.407       .  S
S264        H265   1.407       .  S
C269        C270   1.401   1_556  A
C269        C794   1.430       .  A
C270        C271   1.394       .  A
C270        H279   1.078       .  S
C271        C792   1.411       .  A
C271        S275   1.803       .  S
C272        C273   1.394       .  A
C272        C791   1.412       .  A
C273        C274   1.398       .  A
C273        H280   1.082       .  S
C274        C789   1.430       .  A
C274        S276   1.804       .  S
S275        H278   1.407       .  S
S276        H277   1.404       .  S
C281        C282   1.403       .  A
C281        C286   1.414       .  A
C282        C283   1.404       .  A
C282        H291   1.084       .  S
C283        C284   1.415       .  A
C283        S287   1.800       .  S
C284        C285   1.404       .  A
C285        C286   1.404       .  A
C285        H292   1.084       .  S
C286        S288   1.800       .  S
S287        H290   1.406       .  S
S288        H289   1.405       .  S
C293        C294   1.415       .  A
C293        C298   1.424       .  A
C294        C295   1.391       .  A
C294        H303   1.076       .  S
C295        C296   1.404       .  A
C295        S299   1.808       .  S
C296        C297   1.399       .  A
C297        C298   1.403       .  A
C297        H304   1.083       .  S
C298        S300   1.811       .  S
S299        H302   1.405       .  S
S300        H301   1.407       .  S
C305        C306   1.404       .  A
C305        C310   1.417       .  A
C306        C307   1.402       .  A
C306        H315   1.083       .  S
C307        C308   1.413       .  A
C307        S311   1.801       .  S
C308        C309   1.404       .  A
C309        C310   1.408       .  A
C309        H316   1.084       .  S
C310        S312   1.807       .  S
S311        H314   1.405       .  S
S312        H313   1.402       .  S
C317        C318   1.411       .  A
C317        C322   1.422       .  A
C318        C319   1.392       .  A
C318        H327   1.077       .  S
C319        C320   1.406       .  A
C319        S323   1.806       .  S
C320        C321   1.401       .  A
C321        C322   1.406       .  A
C321        H328   1.082       .  S
C322        S324   1.810       .  S
S323        H326   1.403       .  S
S324        H325   1.407       .  S
C329        C330   1.399   1_556  A
C329        C854   1.419       .  A
C330        C331   1.399       .  A
C330        H339   1.080       .  S
C331        C852   1.426       .  A
C331        S335   1.812       .  S
C332        C333   1.399       .  A
C332        C851   1.422       .  A
C333        C334   1.402       .  A
C333        H340   1.081       .  S
C334        C849   1.424       .  A
C334        S336   1.810       .  S
S335        H338   1.407       .  S
S336        H337   1.406       .  S
C341        C342   1.404       .  A
C341        C346   1.415       .  A
C342        C343   1.404       .  A
C342        H351   1.084       .  S
C343        C344   1.414       .  A
C343        S347   1.802       .  S
C344        C345   1.402       .  A
C345        C346   1.402       .  A
C345        H352   1.084       .  S
C346        S348   1.800       .  S
S347        H350   1.404       .  S
S348        H349   1.401       .  S
C353        C354   1.399       .  A
C353        C358   1.406       .  A
C354        C355   1.402       .  A
C354        H363   1.081       .  S
C355        C356   1.423       .  A
C355        S359   1.811       .  S
C356        C357   1.410       .  A
C357        C358   1.392       .  A
C357        H364   1.076       .  S
C358        S360   1.806       .  S
S359        H362   1.407       .  S
S360        H361   1.404       .  S
C365        C366   1.403       .  A
C365        C370   1.413       .  A
C366        C367   1.408       .  A
C366        H375   1.084       .  S
C367        C368   1.418       .  A
C367        S371   1.806       .  S
C368        C369   1.404       .  A
C369        C370   1.403       .  A
C369        H376   1.083       .  S
C370        S372   1.803       .  S
S371        H374   1.401       .  S
S372        H373   1.404       .  S
C377        C378   1.413       .  A
C377        C382   1.420       .  A
C378        C379   1.395       .  A
C378        H387   1.075       .  S
C379        C380   1.409       .  A
C379        S383   1.810       .  S
C380        C381   1.401       .  A
C381        C382   1.400       .  A
C381        H388   1.082       .  S
C382        S384   1.809       .  S
S383        H386   1.402       .  S
S384        H385   1.408       .  S
C389        C394   1.410       .  A
C389        C910   1.396   1_554  A
C390        C391   1.397       .  A
C390        C909   1.397       .  A
C390        H399   1.075       .  S
C391        C392   1.417       .  A
C391        S395   1.799       .  S
C392        C913   1.409       .  A
C393        C394   1.402       .  A
C393        C912   1.410   1_554  A
C393        H400   1.084       .  S
C394        S396   1.799       .  S
S395        H398   1.407       .  S
S396        H397   1.401   1_554  S
C401        C402   1.404       .  A
C401        C406   1.421       .  A
C402        C403   1.400       .  A
C402        H411   1.084       .  S
C403        C404   1.417       .  A
C403        S407   1.803       .  S
C404        C405   1.403       .  A
C405        C406   1.409       .  A
C405        H412   1.084       .  S
C406        S408   1.804       .  S
S407        H410   1.400       .  S
S408        H409   1.405       .  S
C413        C414   1.400       .  A
C413        C418   1.403       .  A
C414        C415   1.400       .  A
C414        H423   1.082       .  S
C415        C416   1.420       .  A
C415        S419   1.808       .  S
C416        C417   1.415       .  A
C417        C418   1.393       .  A
C417        H424   1.075       .  S
C418        S420   1.807       .  S
S419        H422   1.407       .  S
S420        H421   1.405       .  S
C425        C426   1.400   1_556  A
C425        C950   1.420       .  A
C426        C427   1.394       .  A
C426        H435   1.084       .  S
C427        C948   1.420   1_554  A
C427        S431   1.805       .  S
C428        C429   1.399       .  A
C428        C947   1.421       .  A
C429        C430   1.401       .  A
C429        H436   1.084       .  S
C430        C945   1.420       .  A
C430        S432   1.802       .  S
S431        H434   1.401       .  S
S432        H433   1.408       .  S
C437        C438   1.400   1_556  A
C437        C962   1.415       .  A
C438        C439   1.399       .  A
C438        H447   1.084       .  S
C439        C440   1.420   1_554  A
C439        S443   1.802       .  S
C440        C576   1.490       .  S
C440        C961   1.405       .  A
C441        C442   1.405       .  A
C441        C960   1.405       .  A
C441        H448   1.082       .  S
C442        C957   1.415       .  A
C442        S444   1.807       .  S
S443        H446   1.408   1_545  S
S444        H445   1.406       .  S
C449        C562   1.488       .  S
C449        C450   1.408       .  A
C449        C974   1.415   1_554  A
C450        C451   1.404       .  A
C450        H459   1.082       .  S
C451        C452   1.411       .  A
C451        S455   1.807       .  S
C452        C973   1.406   1_554  A
C453        C454   1.400       .  A
C453        C972   1.405       .  A
C453        H460   1.084       .  S
C454        C969   1.415       .  A
C454        S456   1.803       .  S
S455        H458   1.406       .  S
S456        H457   1.406       .  S
C461        C466   1.410       .  A
C461        C982   1.403       .  A
C462        C463   1.401       .  A
C462        C981   1.402       .  A
C462        H471   1.082       .  S
C463        C464   1.415       .  A
C463        S467   1.809       .  S
C464        C985   1.407   1_554  A
C465        C466   1.404       .  A
C465        C984   1.408       .  A
C465        H472   1.082       .  S
C466        S468   1.806       .  S
S467        H470   1.407       .  S
S468        H469   1.407       .  S
C473        C474   1.400   1_556  A
C473        C998   1.415       .  A
C474        C475   1.408       .  A
C474        H483   1.083       .  S
C475        C476   1.423       .  A
C475        S479   1.809       .  S
C476        C548   1.494       .  S
C476        C997   1.403   1_554  A
C477        C478   1.401       .  A
C477        C996   1.403       .  A
C477        H484   1.082       .  S
C478        C993   1.415       .  A
C478        S480   1.806       .  S
S479        H482   1.407       .  S
S480        H481   1.406       .  S
C485        C486   1.402       .  A
C485       C1010   1.412       .  A
C486        C487   1.398       .  A
C486        H495   1.085       .  S
C487       C1008   1.412       .  A
C487        S491   1.805       .  S
C488        C489   1.406       .  A
C488       C1007   1.412       .  A
C489        C490   1.403       .  A
C489        H496   1.084       .  S
C490       C1005   1.411       .  A
C490        S492   1.804       .  S
S491        H494   1.404       .  S
S492        H493   1.405       .  S
C497        C498   1.399       .  A
C497       C1022   1.415       .  A
C498        C499   1.406       .  A
C498        H507   1.083       .  S
C499        C500   1.423       .  A
C499        S503   1.810       .  S
C500        C534   1.495       .  S
C500       C1021   1.404       .  A
C501        C502   1.398       .  A
C501       C1020   1.403       .  A
C501        H508   1.084       .  S
C502       C1017   1.415       .  A
C502        S504   1.799       .  S
S503        H506   1.407       .  S
S504        H505   1.400       .  S
C509        C510   1.401       .  A
C509       C1034   1.426   1_554  A
C510        C511   1.405       .  A
C510        H519   1.084       .  S
C511        C512   1.423       .  A
C511        S515   1.800       .  S
C512        C531   1.496       .  S
C512       C1033   1.401   1_554  A
C513        C514   1.395       .  A
C513       C1032   1.401       .  A
C513        H520   1.084       .  S
C514       C1029   1.425       .  A
C514        S516   1.811       .  S
S515        H518   1.408       .  S
S516        H517   1.400       .  S
O521        V529   1.908       .  S
O521        C531   1.270   1_556  A
O522        V529   1.910   1_655  S
O523        V529   1.892       .  S
O523        C533   1.261   1_556  A
O524        V529   1.891   1_655  S
O525        V530   1.914   1_655  S
O525        C534   1.270       .  A
O526        V530   1.916       .  S
O527        V530   1.900   1_655  S
O527        C532   1.262       .  A
O528        V530   1.898       .  S
O535        V543   1.910   1_545  S
O535        C545   1.266       .  A
O536        V543   1.910       .  S
O537        V543   1.893   1_545  S
O537        C547   1.262       .  A
O538        V543   1.892       .  S
O539        V544   1.906       .  S
O539        C548   1.269   1_556  A
O540        V544   1.912   1_545  S
O541        V544   1.899       .  S
O541        C546   1.262   1_556  A
O542        V544   1.892   1_545  S
C545       C1005   1.470       .  S
O549        V557   1.898   1_455  S
O549        C559   1.264       .  A
O550        V557   1.900       .  S
O551        V557   1.899   1_455  S
O551        C561   1.263       .  A
O552        V557   1.898       .  S
O553        V558   1.902       .  S
O553        C562   1.265   1_556  A
O554        V558   1.902   1_455  S
O555        V558   1.908       .  S
O555        C560   1.265       .  A
O556        V558   1.905   1_455  S
C559        C984   1.487       .  S
O563        V571   1.898       .  S
O563        C573   1.267       .  A
O564        V571   1.904   1_545  S
O565        V571   1.905       .  S
O565        C575   1.263       .  A
O566        V571   1.899   1_545  S
O567        V572   1.905   1_545  S
O567        C576   1.267       .  A
O568        V572   1.904       .  S
O569        V572   1.897   1_545  S
O569        C574   1.263       .  A
O570        V572   1.893       .  S
C573        C945   1.479       .  S
C577        C578   1.542       .  S
C577        C583   1.524   1_556  S
C577        C581   1.544       .  S
C577        C936   1.535       .  S
C578        H585   1.080       .  S
C579        C580   1.546       .  S
C579       C1029   1.495       .  S
C580        C584   1.557       .  S
C580        C582   1.543       .  S
C580        H586   1.110       .  S
C581        H587   1.086       .  S
C582        C909   1.487       .  S
C584        C924   1.492       .  S
C589        C590   1.539       .  S
C589        C595   1.531       .  S
C589        C593   1.542       .  S
C589        C897   1.537       .  S
C590        H597   1.079       .  S
C591        C592   1.546       .  S
C591        C948   1.482       .  S
C592        C596   1.551       .  S
C592        C594   1.545       .  S
C592        H598   1.108       .  S
C593        H599   1.087       .  S
C594        C912   1.501       .  S
C596        C885   1.490       .  S
C601        C861   1.498       .  S
C601        C602   1.416       .  A
C601        C606   1.401       .  A
C602        C900   1.477       .  S
C602        C603   1.411       .  A
C603        C604   1.401       .  A
C603        H608   1.084       .  S
C604        C888   1.495       .  S
C604        C605   1.413       .  A
C605        C873   1.475       .  S
C605        C606   1.409       .  A
C606        H607   1.084       .  S
C609        C610   1.548       .  S
C609        C615   1.528       .  S
C609        C613   1.541       .  S
C609        C876   1.536       .  S
C610        H617   1.080       .  S
C611        C612   1.536       .  S
C611        C993   1.487       .  S
C612        C616   1.553       .  S
C612        C614   1.548       .  S
C612        H618   1.109       .  S
C613        H619   1.084       .  S
C614        C849   1.497       .  S
C616        C864   1.490       .  S
C621        C622   1.544       .  S
C621        C627   1.527       .  S
C621        C625   1.545       .  S
C621        C837   1.535       .  S
C622        H629   1.085       .  S
C623        C624   1.538   1_554  S
C623       C1017   1.489       .  S
C624        C628   1.551       .  S
C624        C626   1.545   1_556  S
C624        H630   1.109       .  S
C625        H631   1.079       .  S
C626        C852   1.499       .  S
C628        C828   1.488       .  S
C633        C634   1.542       .  S
C633        C639   1.532       .  S
C633        C637   1.547       .  S
C633        C813   1.536       .  S
C634        H641   1.086       .  S
C635        C636   1.533       .  S
C635        C957   1.489       .  S
C636        C640   1.550       .  S
C636        C638   1.547       .  S
C636        H642   1.107       .  S
C637        H643   1.074       .  S
C638        C789   1.501       .  S
C640        C801   1.486       .  S
C645        C646   1.535       .  S
C645        C651   1.544       .  S
C645        C649   1.542       .  S
C645        C780   1.539       .  S
C646        H653   1.086       .  S
C647        C648   1.535   1_554  S
C647        C981   1.485       .  S
C648        C652   1.544       .  S
C648        C650   1.536   1_556  S
C648        H654   1.110       .  S
C649        H655   1.083       .  S
C650        C792   1.481       .  S
C652        C765   1.489       .  S
C657        C768   1.493       .  S
C657        C658   1.408       .  A
C657        C662   1.397       .  A
C658        C933   1.470       .  S
C658        C659   1.405       .  A
C659        C660   1.405       .  A
C659        H664   1.084       .  S
C660        C921   1.499       .  S
C660        C661   1.423       .  A
C661        C777   1.487       .  S
C661        C662   1.413       .  A
C662        H663   1.084       .  S
C665        C816   1.474       .  S
C665        C666   1.416       .  A
C665        C670   1.406       .  A
C666        C744   1.502       .  S
C666        C667   1.404       .  A
C667        C668   1.411       .  A
C667        H672   1.084       .  S
C668        C753   1.480       .  S
C668        C669   1.415       .  A
C669        C804   1.492       .  S
C669        C670   1.396       .  A
C670        H671   1.084       .  S
C673        C674   1.547       .  S
C673        C679   1.531       .  S
C673        C677   1.535       .  S
C673        C756   1.539       .  S
C674        H681   1.080       .  S
C675        C676   1.534       .  S
C675       C1008   1.481       .  S
C676        C680   1.556       .  S
C676        C678   1.550       .  S
C676        H682   1.105       .  S
C677        H683   1.085       .  S
C678        C729   1.505       .  S
C680        C741   1.490       .  S
C685        C686   1.543       .  S
C685        C691   1.524   1_556  S
C685        C689   1.542       .  S
C685        C717   1.538       .  S
C686        H693   1.086       .  S
C687        C688   1.537       .  S
C687        C972   1.488       .  S
C688        C692   1.559       .  S
C688        C690   1.548       .  S
C688        H694   1.107       .  S
C689        H695   1.079       .  S
C690        C732   1.505       .  S
C692        C705   1.497       .  S
C697        C840   1.472       .  S
C697        C698   1.416       .  A
C697        C702   1.407       .  A
C698        C708   1.499       .  S
C698        C699   1.403       .  A
C699        C700   1.408       .  A
C699        H704   1.084       .  S
C700        C720   1.472       .  S
C700        C701   1.412       .  A
C701        C825   1.490       .  S
C701        C702   1.399       .  A
C702        H703   1.084       .  S
C705        C706   1.405       .  A
C705        C710   1.417       .  A
C706        C707   1.411       .  A
C706        H715   1.077       .  S
C707        C708   1.414       .  A
C707        S711   1.806       .  S
C708        C709   1.402       .  A
C709        C710   1.401       .  A
C709        H716   1.083       .  S
C710        S712   1.803       .  S
S711        H714   1.407       .  S
S712        H713   1.403       .  S
C717        C718   1.413       .  A
C717        C722   1.422       .  A
C718        C719   1.394       .  A
C718        H727   1.076       .  S
C719        C720   1.406       .  A
C719        S723   1.810       .  S
C720        C721   1.398       .  A
C721        C722   1.402       .  A
C721        H728   1.082       .  S
C722        S724   1.808       .  S
S723        H726   1.402       .  S
S724        H725   1.407       .  S
C729        C734   1.416       .  A
C730        C731   1.400       .  A
C730        H739   1.082       .  S
C731        C732   1.407       .  A
C731        S735   1.794       .  S
C733        C734   1.400       .  A
C733        H740   1.083       .  S
C734        S736   1.802       .  S
S735        H738   1.406       .  S
S736        H737   1.399       .  S
C741        C742   1.403       .  A
C741        C746   1.417       .  A
C742        C743   1.407       .  A
C742        H751   1.083       .  S
C743        C744   1.417       .  A
C743        S747   1.801       .  S
C744        C745   1.405       .  A
C745        C746   1.402       .  A
C745        H752   1.083       .  S
C746        S748   1.807       .  S
S747        H750   1.406       .  S
S748        H749   1.400       .  S
C753        C754   1.400       .  A
C753        C758   1.408       .  A
C754        C755   1.400       .  A
C754        H763   1.082       .  S
C755        C756   1.423       .  A
C755        S759   1.807       .  S
C756        C757   1.413       .  A
C757        C758   1.395       .  A
C757        H764   1.075       .  S
C758        S760   1.807       .  S
S759        H762   1.408       .  S
S760        H761   1.403       .  S
C765        C766   1.403       .  A
C765        C770   1.416       .  A
C766        C767   1.403       .  A
C766        H775   1.082       .  S
C767        C768   1.415       .  A
C767        S771   1.804       .  S
C768        C769   1.404       .  A
C769        C770   1.402       .  A
C769        H776   1.083       .  S
C770        S772   1.805       .  S
S771        H774   1.405       .  S
S772        H773   1.405       .  S
C777        C778   1.395       .  A
C777        C782   1.409       .  A
C778        C779   1.393       .  A
C778        H787   1.083       .  S
C779        C780   1.425       .  A
C779        S783   1.803       .  S
C780        C781   1.414       .  A
C781        C782   1.407       .  A
C781        H788   1.081       .  S
C782        S784   1.805       .  S
S783        H786   1.406       .  S
S784        H785   1.406       .  S
C789        C790   1.402       .  A
C790        C791   1.397       .  A
C790        H799   1.078       .  S
C791        S795   1.801       .  S
C792        C793   1.395   1_554  A
C793        C794   1.399       .  A
C793        H800   1.082       .  S
C794        S796   1.804       .  S
S795        H798   1.407       .  S
S796        H797   1.403       .  S
C801        C802   1.403       .  A
C801        C806   1.413       .  A
C802        C803   1.404       .  A
C802        H811   1.084       .  S
C803        C804   1.414       .  A
C803        S807   1.801       .  S
C804        C805   1.404       .  A
C805        C806   1.402       .  A
C805        H812   1.084       .  S
C806        S808   1.800       .  S
S807        H810   1.406       .  S
S808        H809   1.406       .  S
C813        C814   1.415       .  A
C813        C818   1.424       .  A
C814        C815   1.390       .  A
C814        H823   1.068       .  S
C815        C816   1.403       .  A
C815        S819   1.808       .  S
C816        C817   1.399       .  A
C817        C818   1.404       .  A
C817        H824   1.082       .  S
C818        S820   1.811       .  S
S819        H822   1.406       .  S
S820        H821   1.407       .  S
C825        C826   1.403       .  A
C825        C830   1.417       .  A
C826        C827   1.401       .  A
C826        H835   1.083       .  S
C827        C828   1.413       .  A
C827        S831   1.800       .  S
C828        C829   1.404       .  A
C829        C830   1.406       .  A
C829        H836   1.084       .  S
C830        S832   1.808       .  S
S831        H834   1.405       .  S
S832        H833   1.402       .  S
C837        C838   1.412       .  A
C837        C842   1.421       .  A
C838        C839   1.393       .  A
C838        H847   1.078       .  S
C839        C840   1.406       .  A
C839        S843   1.807       .  S
C840        C841   1.399       .  A
C841        C842   1.403       .  A
C841        H848   1.083       .  S
C842        S844   1.810       .  S
S843        H846   1.404       .  S
S844        H845   1.407       .  S
C849        C850   1.400       .  A
C850        C851   1.399       .  A
C850        H859   1.080       .  S
C851        S855   1.811       .  S
C852        C853   1.402   1_554  A
C853        C854   1.402       .  A
C853        H860   1.080       .  S
C854        S856   1.808       .  S
S855        H858   1.407       .  S
S856        H857   1.407       .  S
C861        C862   1.405       .  A
C861        C866   1.416       .  A
C862        C863   1.406       .  A
C862        H871   1.084       .  S
C863        C864   1.414       .  A
C863        S867   1.801       .  S
C864        C865   1.403       .  A
C865        C866   1.405       .  A
C865        H872   1.084       .  S
C866        S868   1.801       .  S
S867        H870   1.404       .  S
S868        H869   1.402       .  S
C873        C874   1.400       .  A
C873        C878   1.405       .  A
C874        C875   1.404       .  A
C874        H883   1.083       .  S
C875        C876   1.423       .  A
C875        S879   1.810       .  S
C876        C877   1.411       .  A
C877        C878   1.391       .  A
C877        H884   1.076       .  S
C878        S880   1.807       .  S
S879        H882   1.407       .  S
S880        H881   1.404       .  S
C885        C886   1.404       .  A
C885        C890   1.413       .  A
C886        C887   1.408       .  A
C886        H895   1.084       .  S
C887        C888   1.416       .  A
C887        S891   1.804       .  S
C888        C889   1.404       .  A
C889        C890   1.401       .  A
C889        H896   1.082       .  S
C890        S892   1.803       .  S
S891        H894   1.404       .  S
S892        H893   1.406       .  S
C897        C898   1.414       .  A
C897        C902   1.420       .  A
C898        C899   1.394       .  A
C898        H907   1.074       .  S
C899        C900   1.408       .  A
C899        S903   1.810       .  S
C900        C901   1.400       .  A
C901        C902   1.401       .  A
C901        H908   1.082       .  S
C902        S904   1.809       .  S
S903        H906   1.402       .  S
S904        H905   1.407       .  S
C909        C914   1.413       .  A
C910        C911   1.398       .  A
C910        H919   1.076       .  S
C911        C912   1.419       .  A
C911        S915   1.801       .  S
C913        C914   1.405       .  A
C913        H920   1.084       .  S
C914        S916   1.801       .  S
S915        H918   1.407       .  S
S916        H917   1.399       .  S
C921        C922   1.404       .  A
C921        C926   1.420       .  A
C922        C923   1.400       .  A
C922        H931   1.084       .  S
C923        C924   1.416       .  A
C923        S927   1.802       .  S
C924        C925   1.403       .  A
C925        C926   1.408       .  A
C925        H932   1.084       .  S
C926        S928   1.805       .  S
S927        H930   1.402       .  S
S928        H929   1.405       .  S
C933        C934   1.400       .  A
C933        C938   1.404       .  A
C934        C935   1.402       .  A
C934        H943   1.083       .  S
C935        C936   1.421       .  A
C935        S939   1.809       .  S
C936        C937   1.413       .  A
C937        C938   1.392       .  A
C937        H944   1.077       .  S
C938        S940   1.809       .  S
S939        H942   1.407       .  S
S940        H941   1.404       .  S
C945        C946   1.399       .  A
C946        C947   1.392       .  A
C946        H955   1.084       .  S
C947        S951   1.806       .  S
C948        C949   1.398       .  A
C949        C950   1.401       .  A
C949        H956   1.084       .  S
C950        S952   1.801       .  S
S951        H954   1.401       .  S
S952        H953   1.408       .  S
C957        C958   1.401       .  A
C958        C959   1.400       .  A
C958        H967   1.084       .  S
C959        C960   1.419       .  A
C959        S963   1.802       .  S
C961        C962   1.405       .  A
C961        H968   1.082       .  S
C962        S964   1.807       .  S
S963        H966   1.408   1_545  S
S964        H965   1.406       .  S
C969        C970   1.408       .  A
C970        C971   1.405       .  A
C970        H979   1.082       .  S
C971        C972   1.410       .  A
C971        S975   1.806       .  S
C973        C974   1.400       .  A
C973        H980   1.084       .  S
C974        S976   1.803       .  S
S975        H978   1.407       .  S
S976        H977   1.407       .  S
C981        C986   1.411   1_554  A
C982        C983   1.401       .  A
C982        H991   1.082       .  S
C983        C984   1.415       .  A
C983        S987   1.809       .  S
C985        C986   1.405       .  A
C985        H992   1.083       .  S
C986        S988   1.806       .  S
S987        H990   1.407       .  S
S988        H989   1.407       .  S
C993        C994   1.398       .  A
C994        C995   1.406       .  A
C994       H1003   1.083       .  S
C995        C996   1.423       .  A
C995        S999   1.809       .  S
C997        C998   1.399       .  A
C997       H1004   1.082       .  S
C998       S1000   1.809       .  S
S999       H1002   1.407       .  S
S1000      H1001   1.406       .  S
C1005      C1006   1.402       .  A
C1006      C1007   1.398       .  A
C1006      H1015   1.085   1_545  S
C1007      S1011   1.805       .  S
C1008      C1009   1.406       .  A
C1009      C1010   1.404       .  A
C1009      H1016   1.084       .  S
C1010      S1012   1.805   1_556  S
S1011      H1014   1.404       .  S
S1012      H1013   1.404   1_554  S
C1017      C1018   1.399   1_554  A
C1018      C1019   1.406       .  A
C1018      H1027   1.083       .  S
C1019      C1020   1.424   1_556  A
C1019      S1023   1.810       .  S
C1021      C1022   1.404       .  A
C1021      H1028   1.082       .  S
C1022      S1024   1.807       .  S
S1023      H1026   1.407       .  S
S1024      H1025   1.406       .  S
C1029      C1030   1.401       .  A
C1030      C1031   1.406       .  A
C1030      H1039   1.084       .  S
C1031      C1032   1.423       .  A
C1031      S1035   1.800       .  S
C1033      C1034   1.396       .  A
C1033      H1040   1.084       .  S
C1034      S1036   1.812       .  S
S1035      H1038   1.408       .  S
S1036      H1037   1.399       .  S
