geometry optimzed in LAMMPS
_audit_creation_date              2020-12-01 
_audit_creation_method            'lammps2cif' 
_symmetry_space_group_name_H-M    'P1' 
_symmetry_Int_Tables_number       1 
_symmetry_cell_setting            triclinic 
loop_ 
_symmetry_equiv_pos_as_xyz 
  x,y,z 
_cell_length_a                    47.69162683 
_cell_length_b                    47.941200888323955 
_cell_length_c                    47.74528835476317 
_cell_angle_alpha                 90.13403128387948 
_cell_angle_beta                  90.04340505410585 
_cell_angle_gamma                 89.97755559139013 
loop_ 
_atom_site_label 
_atom_site_type_symbol 
_atom_site_fract_x 
_atom_site_fract_y 
_atom_site_fract_z 
_atom_site_charge 
Fe1        Fe  0.23066804  0.00168364  0.18641814     1.65800
Fe2        Fe  0.30166953  0.00070202  0.18117358     1.73200
Fe3        Fe  0.26992598  0.00153513  0.24643369     1.54400
O4          O  0.24013659  0.03301441  0.25138782    -0.82100
O5          O  0.31983644  0.96968637  0.20461143    -0.80400
O6          O  0.21600821  0.03285402  0.21143118    -0.84600
O7          O  0.21498740  0.97159333  0.21205667    -0.79400
O8          O  0.30031231  0.03217896  0.24644966    -0.81200
O9          O  0.28711252  0.96919232  0.15502551    -0.83900
C10         C  0.21974382  0.96221901  0.23635680     0.96800
C11         C  0.22101279  0.04259096  0.23555174     1.04300
O12         O  0.26747212  0.00122031  0.20481669    -1.12900
O13         O  0.28804412  0.03271579  0.15554212    -0.75400
O14         O  0.24165695  0.03271107  0.15926368    -0.78800
O15         O  0.23947330  0.97112242  0.25181557    -0.79500
C16         C  0.26426921  0.04349354  0.15070635     0.95700
O17         O  0.24076458  0.96997693  0.15954426    -0.77500
O18         O  0.32057503  0.03145226  0.20439638    -0.82700
C19         C  0.31742264  0.96030402  0.22931765     0.98300
C20         C  0.31787497  0.04148273  0.22882093     1.04300
O21         O  0.29990380  0.97012971  0.24683937    -0.78300
C22         C  0.26302607  0.95904329  0.15020588     1.02600
Fe23       Fe  0.77372671  0.99933863  0.18451804     1.65800
Fe24       Fe  0.70330614  0.99974504  0.17697140     1.73200
Fe25       Fe  0.73289938  0.00365628  0.24257298     1.54400
O26         O  0.76014135  0.97071058  0.25045264    -0.82100
O27         O  0.68141261  0.02895399  0.20010552    -0.80400
O28         O  0.79067129  0.97528178  0.21557850    -0.84600
O29         O  0.78604846  0.03529071  0.20424556    -0.79400
O30         O  0.69985443  0.97506271  0.24345895    -0.81200
O31         O  0.71771638  0.03282193  0.15313805    -0.83900
C32         C  0.78369609  0.04307861  0.22955907     0.96800
C33         C  0.78291286  0.96428590  0.23832705     1.04300
O34         O  0.73652923  0.00091515  0.20155841    -1.12900
O35         O  0.72013718  0.96939677  0.15043568    -0.75400
O36         O  0.76408170  0.96286704  0.16453414    -0.78800
O37         O  0.76612570  0.03218169  0.24647632    -0.79500
C38         C  0.74246418  0.95489127  0.15135964     0.95700
O39         O  0.76314146  0.02337776  0.15044610    -0.77500
O40         O  0.68584783  0.96754886  0.19942620    -0.82700
C41         C  0.68520910  0.04234767  0.22274999     0.98300
C42         C  0.68506649  0.96197918  0.22542352     1.04300
O43         O  0.70521731  0.03682910  0.23949425    -0.78300
C44         C  0.74212636  0.03829567  0.14421264     1.02600
Fe45       Fe  0.18327808  0.22960316  0.00602479     1.65800
Fe46       Fe  0.17607335  0.30006849  0.00904713     1.73200
Fe47       Fe  0.24217072  0.27005004  0.00816102     1.54400
O48         O  0.24768747  0.24006035  0.03903199    -0.82100
O49         O  0.19917812  0.32001367  0.97920772    -0.80400
O50         O  0.20941858  0.21357528  0.03578148    -0.84600
O51         O  0.20861944  0.21667075  0.97426737    -0.79400
O52         O  0.24160572  0.29992678  0.03924357    -0.81200
O53         O  0.15064300  0.28671483  0.97636080    -0.83900
C54         C  0.23338027  0.22163184  0.96623700     0.96800
C55         C  0.23293824  0.21936600  0.04659740     1.04300
O56         O  0.20062926  0.26663809  0.00775732    -1.12900
O57         O  0.15041754  0.28416232  0.03980299    -0.75400
O58         O  0.15653702  0.23824540  0.03809626    -0.78800
O59         O  0.24866254  0.24039225  0.97712821    -0.79500
C60         C  0.14668768  0.25991914  0.04957270     0.95700
O61         O  0.15531165  0.24067484  0.97563061    -0.77500
O62         O  0.19862259  0.31807373  0.04112587    -0.82700
C63         C  0.22349912  0.31776885  0.96880858     0.98300
C64         C  0.22368034  0.31641003  0.04985070     1.04300
O65         O  0.24151290  0.30018618  0.97732891    -0.78300
C66         C  0.14579405  0.26307130  0.96543619     1.02600
Fe67       Fe  0.18197917  0.77219568  0.01015402     1.65800
Fe68       Fe  0.17605873  0.70211663  0.00756813     1.73200
Fe69       Fe  0.24168141  0.73289927  0.00632257     1.54400
O70         O  0.24520172  0.76531359  0.97699948    -0.82100
O71         O  0.19940436  0.68367964  0.03795454    -0.80400
O72         O  0.20329362  0.78616468  0.97630400    -0.84600
O73         O  0.21111955  0.78842893  0.03675066    -0.79400
O74         O  0.24037568  0.70461771  0.97348975    -0.81200
O75         O  0.15010954  0.71624816  0.03986043    -0.83900
C76         C  0.23491313  0.78226300  0.04652513     0.96800
C77         C  0.22814903  0.78346994  0.96739774     1.04300
O78         O  0.20013189  0.73565203  0.00798929    -1.12900
O79         O  0.15082311  0.71674686  0.97592118    -0.75400
O80         O  0.14995554  0.76235250  0.98316123    -0.78800
O81         O  0.24868470  0.76100568  0.03873168    -0.79500
C82         C  0.14283221  0.74098408  0.96930892     0.95700
O83         O  0.16006699  0.76125806  0.04486117    -0.77500
O84         O  0.19888246  0.68338353  0.97627794    -0.82700
C85         C  0.22456100  0.68440524  0.04641011     0.98300
C86         C  0.22269201  0.68666663  0.96499477     1.04300
O87         O  0.24285373  0.70077738  0.03598574    -0.78300
C88         C  0.14893172  0.73899641  0.05356346     1.02600
Fe89       Fe  0.00119862  0.18525301  0.77611538     1.65800
Fe90       Fe  0.00074413  0.17920261  0.70528518     1.73200
Fe91       Fe  0.00364378  0.24455095  0.73636533     1.54400
O92         O  0.97216087  0.25114007  0.76557145    -0.82100
O93         O  0.03188667  0.20178309  0.68599130    -0.80400
O94         O  0.97154879  0.21216543  0.79104404    -0.84600
O95         O  0.03305802  0.20924315  0.79119832    -0.79400
O96         O  0.97315733  0.24573879  0.70542089    -0.81200
O97         O  0.03270674  0.15310195  0.71931169    -0.83900
C98         C  0.04274996  0.23338274  0.78684400     0.96800
C99         C  0.96264866  0.23640143  0.78544948     1.04300
O100        O  0.00186031  0.20313682  0.73921685    -1.12900
O101        O  0.96866600  0.15363501  0.71986280    -0.75400
O102        O  0.96855323  0.15949260  0.76593199    -0.78800
O103        O  0.03394025  0.24913212  0.76739165    -0.79500
C104        C  0.95788273  0.14958225  0.74379510     0.95700
O105        O  0.03158538  0.15678026  0.76571434    -0.77500
O106        O  0.96950515  0.20293299  0.68740144    -0.82700
C107        C  0.04365613  0.22532378  0.68911263     0.98300
C108        C  0.96159931  0.22816974  0.68911430     1.04300
O109        O  0.03561938  0.24308409  0.70718147    -0.78300
C110        C  0.04269202  0.14774180  0.74338129     1.02600
Fe111      Fe  0.00636278  0.18214965  0.23637250     1.65800
Fe112      Fe  0.00277364  0.17719254  0.30624316     1.73200
Fe113      Fe  0.00455305  0.24131363  0.27506553     1.54400
O114        O  0.03318075  0.24558075  0.24215993    -0.82100
O115        O  0.96844126  0.19804634  0.32075397    -0.80400
O116        O  0.04273795  0.20237217  0.22746780    -0.84600
O117        O  0.98302359  0.21211328  0.21660703    -0.79400
O118        O  0.03791558  0.24085341  0.30274322    -0.81200
O119        O  0.97427933  0.14876309  0.28820181    -0.83900
C120        C  0.96859597  0.23310974  0.22377541     0.96800
C121        C  0.04747611  0.22837377  0.22763043     1.04300
O122        O  0.00433056  0.20041775  0.27271336    -1.12900
O123        O  0.03839142  0.15563885  0.29479706    -0.75400
O124        O  0.03035775  0.14901919  0.24970019    -0.78800
O125        O  0.97147769  0.24527379  0.24723481    -0.79500
C126        C  0.04567314  0.14622245  0.27116033     0.95700
O127        O  0.96964374  0.16175418  0.24372291    -0.77500
O128        O  0.02996571  0.20283923  0.32838370    -0.82700
C129        C  0.96228529  0.22375072  0.32178295     0.98300
C130        C  0.04354616  0.22513539  0.32342095     1.04300
O131        O  0.97558465  0.24219814  0.30791911    -0.78300
C132        C  0.96073059  0.14893384  0.26510049     1.02600
Fe133      Fe  0.00224755  0.82363176  0.23932432     1.65800
Fe134      Fe  0.00067033  0.82863159  0.31026180     1.73200
Fe135      Fe  0.00169773  0.76402825  0.27793042     1.54400
O136        O  0.96932541  0.75925324  0.24934457    -0.82100
O137        O  0.03024335  0.80419045  0.33022636    -0.80400
O138        O  0.97390728  0.79662951  0.22206847    -0.84600
O139        O  0.03546387  0.80032883  0.22551366    -0.79400
O140        O  0.97219861  0.76316136  0.30962760    -0.81200
O141        O  0.03407390  0.85295659  0.29780276    -0.83900
C142        C  0.04230839  0.77496667  0.22832251     0.96800
C143        C  0.96254607  0.77355145  0.22805023     1.04300
O144        O  0.00152888  0.80531327  0.27590208    -1.12900
O145        O  0.97012422  0.85594751  0.29500221    -0.75400
O146        O  0.96872258  0.84814343  0.24915180    -0.78800
O147        O  0.03089150  0.75889382  0.24606484    -0.79500
C148        C  0.95859704  0.85885350  0.27117102     0.95700
O149        O  0.03107658  0.85275447  0.25140971    -0.77500
O150        O  0.96809690  0.80631340  0.32665400    -0.82700
C151        C  0.04190574  0.78076334  0.32580963     0.98300
C152        C  0.96048125  0.78103700  0.32541780     1.04300
O153        O  0.03422256  0.76429560  0.30637879    -0.78300
C154        C  0.04325931  0.85972038  0.27390377     1.02600
Fe155      Fe  0.82099685  0.76860844  0.01020662     1.65800
Fe156      Fe  0.82850542  0.69848656  0.00836650     1.73200
Fe157      Fe  0.76252947  0.72805553  0.00733515     1.54400
O158        O  0.75515107  0.76026483  0.03595117    -0.82100
O159        O  0.80844465  0.68176687  0.97433204    -0.80400
O160        O  0.79657221  0.78058166  0.04301202    -0.84600
O161        O  0.79351039  0.78489223  0.98166126    -0.79400
O162        O  0.76290473  0.70072241  0.04043148    -0.81200
O163        O  0.85708351  0.71498786  0.97992709    -0.83900
C164        C  0.77127941  0.77775591  0.96901812     0.96800
C165        C  0.77085313  0.77759586  0.04866071     1.04300
O166        O  0.80389630  0.73166406  0.00852092    -1.12900
O167        O  0.85060656  0.71160950  0.04326214    -0.75400
O168        O  0.85035110  0.75776078  0.03965698    -0.78800
O169        O  0.75789022  0.75559224  0.97447029    -0.79500
C170        C  0.85711197  0.73560343  0.05234593     0.95700
O171        O  0.84660482  0.76003012  0.97712966    -0.77500
O172        O  0.80310689  0.67740220  0.03590767    -0.82700
C173        C  0.78308378  0.68125062  0.96643020     0.98300
C174        C  0.77969943  0.68157331  0.04783254     1.04300
O175        O  0.76401611  0.69571385  0.97819341    -0.78300
C176        C  0.85911079  0.73856449  0.96803131     1.02600
Fe177      Fe  0.23145628  0.00503398  0.83024035     1.65800
Fe178      Fe  0.30232628  0.00086905  0.83295211     1.73200
Fe179      Fe  0.26786332  0.99953264  0.76901195     1.54400
O180        O  0.23772224  0.96796071  0.76706732    -0.82100
O181        O  0.32115642  0.02899178  0.80700225    -0.80400
O182        O  0.21240525  0.97642803  0.80526795    -0.84600
O183        O  0.21795986  0.03713949  0.80565795    -0.79400
O184        O  0.29882930  0.96882194  0.76862963    -0.81200
O185        O  0.29156704  0.03526645  0.85709862    -0.83900
C186        C  0.21966578  0.04243803  0.77976120     0.96800
C187        C  0.21661252  0.96331122  0.78265908     1.04300
O188        O  0.26729014  0.00175083  0.81058249    -1.12900
O189        O  0.28737246  0.97187509  0.86141150    -0.75400
O190        O  0.24106812  0.97280752  0.85637180    -0.78800
O191        O  0.23642446  0.02958039  0.76346977    -0.79500
C192        C  0.26318227  0.96198169  0.86621727     0.95700
O193        O  0.24512211  0.03474620  0.85741730    -0.77500
O194        O  0.31804620  0.96739072  0.81113797    -0.82700
C195        C  0.31671410  0.03968935  0.78315664     0.98300
C196        C  0.31564076  0.95816659  0.78636942     1.04300
O197        O  0.29761558  0.03121046  0.76654277    -0.78300
C198        C  0.26821329  0.04592325  0.86379273     1.02600
Fe199      Fe  0.00004064  0.81857428  0.77823666     1.65800
Fe200      Fe  0.00082575  0.82194674  0.70758606     1.73200
Fe201      Fe  0.00347724  0.75781916  0.74078392     1.54400
O202        O  0.03434498  0.75577186  0.77208536    -0.82100
O203        O  0.96982937  0.79798061  0.69065017    -0.80400
O204        O  0.03420991  0.79780249  0.79240929    -0.84600
O205        O  0.97350991  0.79034845  0.79585710    -0.79400
O206        O  0.03514456  0.75818041  0.71118453    -0.81200
O207        O  0.96906941  0.84826928  0.72162959    -0.83900
C208        C  0.96409800  0.76619529  0.79103096     0.96800
C209        C  0.04402789  0.77341941  0.78965049     1.04300
O210        O  0.00146413  0.79922937  0.74213020    -1.12900
O211        O  0.03279479  0.84791869  0.72061027    -0.75400
O212        O  0.02690852  0.84984516  0.76656841    -0.78800
O213        O  0.97219095  0.75144160  0.77048939    -0.79500
C214        C  0.03981019  0.85689356  0.74454759     0.95700
O215        O  0.96515613  0.84026252  0.76727360    -0.77500
O216        O  0.03142656  0.79857238  0.68857405    -0.82700
C217        C  0.96164770  0.77292724  0.69263807     0.98300
C218        C  0.04287400  0.77500447  0.69218843     1.04300
O219        O  0.97264097  0.75550979  0.70960571    -0.78300
C220        C  0.95601710  0.85053066  0.74469967     1.02600
Fe221      Fe  0.82861377  0.23158074  0.00742032     1.65800
Fe222      Fe  0.83014292  0.30166770  0.00540220     1.73200
Fe223      Fe  0.76658018  0.26693378  0.00659999     1.54400
O224        O  0.76293894  0.23748878  0.97461071    -0.82100
O225        O  0.80468201  0.32097050  0.03418147    -0.80400
O226        O  0.80081473  0.21163508  0.98220195    -0.84600
O227        O  0.80777816  0.21893246  0.04222954    -0.79400
O228        O  0.76407064  0.29839052  0.97634092    -0.81200
O229        O  0.85470032  0.29083396  0.03912959    -0.83900
C230        C  0.78193036  0.21876065  0.04833578     0.96800
C231        C  0.77778975  0.21599335  0.96991207     1.04300
O232        O  0.80819843  0.26685468  0.00650811    -1.12900
O233        O  0.85831175  0.28695928  0.97526982    -0.75400
O234        O  0.85000822  0.24144243  0.97199743    -0.78800
O235        O  0.76406849  0.23467525  0.03639123    -0.79500
C236        C  0.86035791  0.26375911  0.96244881     0.95700
O237        O  0.85978749  0.24528179  0.03347428    -0.77500
O238        O  0.80703294  0.31645359  0.97293129    -0.82700
C239        C  0.78111585  0.31650704  0.04560670     0.98300
C240        C  0.78173577  0.31483465  0.96502816     1.04300
O241        O  0.76509668  0.29643232  0.03857693    -0.78300
C242        C  0.86429638  0.26755372  0.04692207     1.02600
Fe243      Fe  0.77396284  0.99629661  0.82961354     1.65800
Fe244      Fe  0.70342268  0.99685547  0.83613028     1.73200
Fe245      Fe  0.73377869  0.99812858  0.77071356     1.54400
O246        O  0.76745506  0.02587304  0.76548338    -0.82100
O247        O  0.68656785  0.96423083  0.81462076    -0.80400
O248        O  0.78762510  0.02988505  0.80743529    -0.84600
O249        O  0.78996713  0.96890606  0.80067836    -0.79400
O250        O  0.70705683  0.03183790  0.77228486    -0.81200
O251        O  0.71899667  0.96724499  0.86387323    -0.83900
C252        C  0.78235481  0.95767351  0.77786990     0.96800
C253        C  0.78532573  0.03691325  0.78199842     1.04300
O254        O  0.73702013  0.99712366  0.81200938    -1.12900
O255        O  0.71707788  0.03012124  0.85966091    -0.75400
O256        O  0.76319676  0.02394467  0.86091239    -0.78800
O257        O  0.76034227  0.96465529  0.76476303    -0.79500
C258        C  0.74127550  0.03725998  0.86784889     0.95700
O259        O  0.76386386  0.96221376  0.85268608    -0.77500
O260        O  0.68278523  0.02560008  0.81165615    -0.82700
C261        C  0.68569366  0.95767017  0.78895615     0.98300
C262        C  0.68731269  0.03839381  0.78886976     1.04300
O263        O  0.70018311  0.97008626  0.77033438    -0.78300
C264        C  0.74198597  0.95394713  0.86504157     1.02600
Fe265      Fe  0.50371589  0.27350285  0.31964781     1.65800
Fe266      Fe  0.50236409  0.20303269  0.32450518     1.73200
Fe267      Fe  0.49941153  0.23471040  0.25932874     1.54400
O268        O  0.46943580  0.26644748  0.25576063    -0.82100
O269        O  0.53197264  0.18437229  0.29980101    -0.80400
O270        O  0.47267161  0.29011285  0.29580147    -0.84600
O271        O  0.53397646  0.28748620  0.29307883    -0.79400
O272        O  0.46697365  0.20609270  0.26053923    -0.81200
O273        O  0.53575612  0.21603607  0.34946543    -0.83900
C274        C  0.54201052  0.28238512  0.26832555     0.96800
C275        C  0.46186334  0.28613927  0.27197724     1.04300
O276        O  0.50183648  0.23703429  0.30098745    -1.12900
O277        O  0.47184985  0.21759973  0.35168101    -0.75400
O278        O  0.47284027  0.26374142  0.34770473    -0.78800
O279        O  0.53137543  0.26338037  0.25308830    -0.79500
C280        C  0.46192994  0.24157187  0.35702491     0.95700
O281        O  0.53572027  0.26208627  0.34556450    -0.77500
O282        O  0.47000727  0.18541965  0.30224355    -0.82700
C283        C  0.53988089  0.18589005  0.27452794     0.98300
C284        C  0.45847117  0.18851524  0.27849672     1.04300
O285        O  0.52924225  0.20288115  0.25703082    -0.78300
C286        C  0.54664425  0.23970652  0.35424704     1.02600
Fe287      Fe  0.32122896  0.50466544  0.27763151     1.65800
Fe288      Fe  0.32526782  0.50382082  0.20703661     1.73200
Fe289      Fe  0.26067049  0.50039961  0.23960426     1.54400
O290        O  0.25848190  0.47025530  0.27130358    -0.82100
O291        O  0.30163548  0.53524478  0.19048485    -0.80400
O292        O  0.30070759  0.47011704  0.29168448    -0.84600
O293        O  0.29215980  0.53041849  0.29505280    -0.79400
O294        O  0.26174107  0.46834216  0.21063918    -0.81200
O295        O  0.35188279  0.53505773  0.22149360    -0.83900
C296        C  0.26802371  0.53973955  0.28960218     0.96800
C297        C  0.27610135  0.46048436  0.28885692     1.04300
O298        O  0.30216298  0.50291754  0.24137480    -1.12900
O299        O  0.35053798  0.47153846  0.22023961    -0.75400
O300        O  0.35324654  0.47826910  0.26613967    -0.78800
O301        O  0.25375980  0.53188886  0.26863104    -0.79500
C302        C  0.35925554  0.46454526  0.24425654     0.95700
O303        O  0.34220734  0.54019093  0.26669580    -0.77500
O304        O  0.30181601  0.47363570  0.18741154    -0.82700
C305        C  0.27616859  0.54260499  0.19212528     0.98300
C306        C  0.27869054  0.46127119  0.19142274     1.04300
O307        O  0.25849476  0.53060205  0.20814232    -0.78300
C308        C  0.35294147  0.54894182  0.24414589     1.02600
Fe309      Fe  0.27624715  0.32087857  0.50796126     1.65800
Fe310      Fe  0.20534618  0.32513099  0.50750720     1.73200
Fe311      Fe  0.23802839  0.26064883  0.50717532     1.54400
O312        O  0.26940573  0.25658749  0.47698521    -0.82100
O313        O  0.18842653  0.30284962  0.54014586    -0.80400
O314        O  0.29057009  0.29808300  0.47500047    -0.84600
O315        O  0.29350604  0.29401754  0.53628038    -0.79400
O316        O  0.20834075  0.25994261  0.47516184    -0.81200
O317        O  0.21980768  0.35275936  0.53798727    -0.83900
C318        C  0.28829665  0.27044509  0.54687838     0.96800
C319        C  0.28734873  0.27324854  0.46655026     1.04300
O320        O  0.23979740  0.30201879  0.50752653    -1.12900
O321        O  0.21861686  0.34895002  0.47379317    -0.75400
O322        O  0.26479060  0.35036340  0.47912367    -0.78800
O323        O  0.26758207  0.25561585  0.53916007    -0.79500
C324        C  0.24277400  0.35630335  0.46557947     0.95700
O325        O  0.26547396  0.34458229  0.54156568    -0.77500
O326        O  0.18583381  0.30062484  0.47800658    -0.82700
C327        C  0.19040831  0.27782265  0.54856180     0.98300
C328        C  0.18940203  0.27678970  0.46705051     1.04300
O329        O  0.20690158  0.26007168  0.53747697    -0.78300
C330        C  0.24302926  0.35512174  0.55079815     1.02600
Fe331      Fe  0.27314842  0.68042401  0.50947932     1.65800
Fe332      Fe  0.20242366  0.67521046  0.50728333     1.73200
Fe333      Fe  0.23431941  0.74013142  0.50742355     1.54400
O334        O  0.26617090  0.74563558  0.53653711    -0.82100
O335        O  0.18553292  0.69753388  0.47483262    -0.80400
O336        O  0.28581288  0.70390041  0.54275936    -0.84600
O337        O  0.29066042  0.70745250  0.48169050    -0.79400
O338        O  0.20558146  0.74040287  0.53994891    -0.81200
O339        O  0.21795855  0.64787929  0.47722848    -0.83900
C340        C  0.28478510  0.72999337  0.46928782     0.96800
C341        C  0.28335928  0.72950859  0.54875353     1.04300
O342        O  0.23653803  0.69869774  0.50800721    -1.12900
O343        O  0.21483668  0.65033610  0.54031771    -0.75400
O344        O  0.26121761  0.65099744  0.53780280    -0.78800
O345        O  0.26315004  0.74438522  0.47497504    -0.79500
C346        C  0.23872654  0.64310736  0.54926035     0.95700
O347        O  0.26395322  0.65556952  0.47604518    -0.77500
O348        O  0.18300400  0.69964392  0.53682738    -0.82700
C349        C  0.18654467  0.72268259  0.46676577     0.98300
C350        C  0.18688605  0.72332936  0.54808489     1.04300
O351        O  0.20258452  0.74069076  0.47790207    -0.78300
C352        C  0.24196035  0.64445592  0.46623688     1.02600
Fe353      Fe  0.32201501  0.49744970  0.73979754     1.65800
Fe354      Fe  0.32437033  0.50011787  0.81070617     1.73200
Fe355      Fe  0.26032246  0.49922838  0.77619277     1.54400
O356        O  0.25633074  0.52834052  0.74433669    -0.82100
O357        O  0.30061061  0.46956008  0.82841085    -0.80400
O358        O  0.29730209  0.52708927  0.72200629    -0.84600
O359        O  0.29735556  0.46609429  0.72458659    -0.79400
O360        O  0.25877975  0.53177083  0.80483290    -0.81200
O361        O  0.35160088  0.46822049  0.79904971    -0.83900
C362        C  0.27275609  0.45710268  0.72871856     0.96800
C363        C  0.27267763  0.53638701  0.72502291     1.04300
O364        O  0.30207821  0.49896500  0.77559570    -1.12900
O365        O  0.35042857  0.53181862  0.79706795    -0.75400
O366        O  0.34846902  0.52918332  0.75067441    -0.78800
O367        O  0.25651666  0.46706165  0.74728360    -0.79500
C368        C  0.35643410  0.54111091  0.77297864     0.95700
O369        O  0.34864675  0.46694357  0.75274598    -0.77500
O370        O  0.29973765  0.53104689  0.82730607    -0.82700
C371        C  0.27600837  0.46010974  0.82542183     0.98300
C372        C  0.27559056  0.54131577  0.82316000     1.04300
O373        O  0.25875727  0.46965079  0.80757038    -0.78300
C374        C  0.35725987  0.45699898  0.77566019     1.02600
Fe375      Fe  0.50006442  0.72913375  0.32287242     1.65800
Fe376      Fe  0.50244218  0.79943613  0.33140450     1.73200
Fe377      Fe  0.50223027  0.77052640  0.26481115     1.54400
O378        O  0.53366447  0.74095248  0.25869825    -0.82100
O379        O  0.47201262  0.81964126  0.30856624    -0.80400
O380        O  0.52812984  0.71267967  0.29516925    -0.84600
O381        O  0.46662118  0.71768307  0.29870739    -0.79400
O382        O  0.53317286  0.80096411  0.26577434    -0.81200
O383        O  0.46996179  0.78565003  0.35684253    -0.83900
C384        C  0.45930275  0.72244936  0.27367794     0.96800
C385        C  0.53997835  0.71920464  0.27243783     1.04300
O386        O  0.50161942  0.76646837  0.30625241    -1.12900
O387        O  0.53359804  0.78279162  0.35685425    -0.75400
O388        O  0.53354618  0.73713036  0.34830701    -0.78800
O389        O  0.47137242  0.74038787  0.25824411    -0.79500
C390        C  0.54417864  0.75860454  0.35958779     0.95700
O391        O  0.47161249  0.73968941  0.35291729    -0.77500
O392        O  0.53428209  0.81812982  0.30915214    -0.82700
C393        C  0.46189812  0.81768929  0.28403767     0.98300
C394        C  0.54336764  0.81725890  0.28419672     1.04300
O395        O  0.47092141  0.80043247  0.26588279    -0.78300
C396        C  0.46072857  0.76161495  0.36279786     1.02600
Fe397      Fe  0.67740348  0.49749235  0.27362372     1.65800
Fe398      Fe  0.67550570  0.50230473  0.20302290     1.73200
Fe399      Fe  0.73882745  0.49870714  0.23761766     1.54400
O400        O  0.74283333  0.53027139  0.26729429    -0.82100
O401        O  0.70128232  0.47454238  0.18201779    -0.80400
O402        O  0.70514108  0.52306031  0.29381439    -0.84600
O403        O  0.69880472  0.46255536  0.28567317    -0.79400
O404        O  0.74145282  0.52867643  0.20663397    -0.81200
O405        O  0.65136211  0.46800955  0.21267497    -0.83900
C406        C  0.72458121  0.45626955  0.28449833     0.96800
C407        C  0.72818493  0.53519911  0.28896279     1.04300
O408        O  0.69737743  0.49953160  0.23803130    -1.12900
O409        O  0.64686454  0.53120801  0.21895058    -0.75400
O410        O  0.65498531  0.53259568  0.26473056    -0.78800
O411        O  0.74194803  0.46894981  0.26892251    -0.79500
C412        C  0.64421213  0.54278067  0.24278121     0.95700
O413        O  0.64693478  0.47121682  0.25889064    -0.77500
O414        O  0.69822164  0.53604285  0.19022978    -0.82700
C415        C  0.72376557  0.46131313  0.18728678     0.98300
C416        C  0.72396640  0.54226756  0.19193861     1.04300
O417        O  0.73911221  0.46684256  0.20836650    -0.78300
C418        C  0.64240517  0.45891493  0.23586105     1.02600
Fe419      Fe  0.72979506  0.68007362  0.50714007     1.65800
Fe420      Fe  0.80055175  0.67397430  0.50668637     1.73200
Fe421      Fe  0.76951809  0.73948967  0.50658311     1.54400
O422        O  0.73873443  0.74422686  0.47564340    -0.82100
O423        O  0.81981604  0.69763720  0.53663617    -0.80400
O424        O  0.71574463  0.70370283  0.47494428    -0.84600
O425        O  0.71415400  0.70715893  0.53599230    -0.79400
O426        O  0.79922235  0.73871730  0.47530440    -0.81200
O427        O  0.78631218  0.64922765  0.53956740    -0.83900
C428        C  0.71941606  0.73102539  0.54599926     0.96800
C429        C  0.72007706  0.72799577  0.46568139     1.04300
O430        O  0.76670316  0.69800829  0.50679896    -1.12900
O431        O  0.78605607  0.64735087  0.47562680    -0.75400
O432        O  0.73981281  0.65082996  0.47754309    -0.78800
O433        O  0.73986401  0.74579603  0.53782100    -0.79500
C434        C  0.76188898  0.64140416  0.46637863     0.95700
O435        O  0.74008339  0.65514497  0.54003142    -0.77500
O436        O  0.81892162  0.69649474  0.47499453    -0.82700
C437        C  0.81809754  0.72211651  0.54649819     0.98300
C438        C  0.81654201  0.72109516  0.46550660     1.04300
O439        O  0.80050754  0.73997425  0.53748989    -0.78300
C440        C  0.76241324  0.64578987  0.55079709     1.02600
Fe441      Fe  0.68238716  0.49789856  0.73647378     1.65800
Fe442      Fe  0.67812903  0.49965294  0.80712015     1.73200
Fe443      Fe  0.74283978  0.49818984  0.77457579     1.54400
O444        O  0.74743938  0.46538069  0.74663444    -0.82100
O445        O  0.70397151  0.52819199  0.82642809    -0.80400
O446        O  0.70965450  0.46964129  0.71964549    -0.84600
O447        O  0.70542363  0.53066207  0.72223288    -0.79400
O448        O  0.74276156  0.46928030  0.80689591    -0.81200
O449        O  0.65526531  0.53368050  0.79343486    -0.83900
C450        C  0.73072576  0.53822871  0.72490204     0.96800
C451        C  0.73291696  0.45841196  0.72552129     1.04300
O452        O  0.70129836  0.49854137  0.77278988    -1.12900
O453        O  0.64913283  0.47037885  0.79285679    -0.75400
O454        O  0.65844862  0.46453022  0.74765997    -0.78800
O455        O  0.74763321  0.52700700  0.74217586    -0.79500
C456        C  0.64686164  0.45672616  0.77013780     0.95700
O457        O  0.65254669  0.52681476  0.74752322    -0.77500
O458        O  0.69936386  0.46661928  0.82428903    -0.82700
C459        C  0.72771425  0.53919930  0.82187981     0.98300
C460        C  0.72461251  0.45839268  0.82311127     1.04300
O461        O  0.74388958  0.53107150  0.80243247    -0.78300
C462        C  0.64721274  0.54103247  0.76925993     1.02600
Fe463      Fe  0.50242756  0.73082779  0.68649357     1.65800
Fe464      Fe  0.50107800  0.80138359  0.68543682     1.73200
Fe465      Fe  0.50128318  0.76616670  0.74870090     1.54400
O466        O  0.46966557  0.73657835  0.75171446    -0.82100
O467        O  0.52975948  0.81979809  0.71133660    -0.80400
O468        O  0.47402705  0.71208479  0.71230460    -0.84600
O469        O  0.53528401  0.71593174  0.70915759    -0.79400
O470        O  0.47023587  0.79713997  0.75079364    -0.81200
O471        O  0.53485888  0.79039654  0.66061465    -0.83900
C472        C  0.54287771  0.71769170  0.73449554     0.96800
C473        C  0.46286462  0.71631367  0.73596799     1.04300
O474        O  0.50162798  0.76616494  0.70705795    -1.12900
O475        O  0.47131120  0.78789019  0.65669524    -0.75400
O476        O  0.46925715  0.74199466  0.66246080    -0.78800
O477        O  0.53172540  0.73464572  0.75184749    -0.79500
C478        C  0.45957833  0.76448894  0.65270821     0.95700
O479        O  0.53132998  0.74434685  0.65801139    -0.77500
O480        O  0.46819776  0.81634210  0.70833019    -0.82700
C481        C  0.54098859  0.81517886  0.73491609     0.98300
C482        C  0.45914884  0.81376932  0.73313795     1.04300
O483        O  0.53321682  0.79545452  0.75087169    -0.78300
C484        C  0.54367253  0.76694412  0.65214363     1.02600
Fe485      Fe  0.50373942  0.26875391  0.69518085     1.65800
Fe486      Fe  0.50476328  0.19844913  0.68994970     1.73200
Fe487      Fe  0.50257096  0.23002896  0.75521578     1.54400
O488        O  0.53486375  0.25847501  0.76101615    -0.82100
O489        O  0.47514811  0.17857601  0.71386161    -0.80400
O490        O  0.53156751  0.28538242  0.72311042    -0.84600
O491        O  0.47048068  0.28276883  0.71805327    -0.79400
O492        O  0.53223336  0.19817199  0.75652645    -0.81200
O493        O  0.47166645  0.21106745  0.66484668    -0.83900
C494        C  0.46293001  0.28025885  0.74334391     0.96800
C495        C  0.54212682  0.27954926  0.74670942     1.04300
O496        O  0.50364635  0.23237554  0.71362760    -1.12900
O497        O  0.53567977  0.21335934  0.66308096    -0.75400
O498        O  0.53798423  0.25885885  0.67121026    -0.78800
O499        O  0.47339139  0.26220887  0.75981441    -0.79500
C500        C  0.54781233  0.23677417  0.66045523     0.95700
O501        O  0.47489103  0.25724083  0.66516879    -0.77500
O502        O  0.53691981  0.18216380  0.71286523    -0.82700
C503        C  0.46287423  0.18241785  0.73710305     0.98300
C504        C  0.54430969  0.18291182  0.73833544     1.04300
O505        O  0.46989318  0.20159781  0.75417091    -0.78300
C506        C  0.46272149  0.23491353  0.65771171     1.02600
Fe507      Fe  0.72918783  0.32092897  0.50494846     1.65800
Fe508      Fe  0.80021164  0.32762225  0.50431252     1.73200
Fe509      Fe  0.76960693  0.26207337  0.50576861     1.54400
O510        O  0.73827517  0.25656902  0.53582985    -0.82100
O511        O  0.82025602  0.30371885  0.47494293    -0.80400
O512        O  0.71421104  0.29634558  0.53640109    -0.84600
O513        O  0.71421685  0.29466189  0.47470063    -0.79400
O514        O  0.79881414  0.26369487  0.53813309    -0.81200
O515        O  0.78576688  0.35118128  0.47093163    -0.83900
C516        C  0.72016521  0.27090561  0.46471401     0.96800
C517        C  0.71880586  0.27198714  0.54540440     1.04300
O518        O  0.76639545  0.30339011  0.50498285    -1.12900
O519        O  0.78557626  0.35487476  0.53459723    -0.75400
O520        O  0.73951885  0.34876592  0.53565643    -0.78800
O521        O  0.74042657  0.25609581  0.47364031    -0.79500
C522        C  0.76179425  0.35913362  0.54555638     0.95700
O523        O  0.73937450  0.34715326  0.47298413    -0.77500
O524        O  0.81832638  0.30605059  0.53673023    -0.82700
C525        C  0.81880287  0.27885355  0.46615850     0.98300
C526        C  0.81580314  0.28199762  0.54751501     1.04300
O527        O  0.80115185  0.26141532  0.47569848    -0.78300
C528        C  0.76147966  0.35540080  0.46095769     1.02600
C529        C  0.69964908  0.26171708  0.56736851    -0.01700
C530        C  0.68714395  0.23536205  0.56544456    -0.09700
C531        C  0.66409556  0.22855178  0.58237894    -0.18500
C532        C  0.65289322  0.24813292  0.60167408     0.03900
C533        C  0.66713239  0.27404120  0.60473734     0.18000
C534        C  0.69021080  0.28044406  0.58780719    -0.20000
C535        C  0.65742411  0.29415575  0.62362649    -0.21200
C536        C  0.63286349  0.28984471  0.63849733    -0.19800
C537        C  0.61743332  0.26529686  0.63488100     0.19400
C538        C  0.62749997  0.24366663  0.61710300     0.01600
C539        C  0.61115511  0.21906651  0.61496213    -0.14500
C540        C  0.58538322  0.21667161  0.62895113    -0.12200
C541        C  0.57502028  0.23869695  0.64534546     0.01100
C542        C  0.59161024  0.26265100  0.64860270    -0.24400
H543        H  0.69406044  0.22065588  0.54963164     0.09100
H544        H  0.65481402  0.20831484  0.57913434     0.12700
H545        H  0.69998439  0.30081914  0.58945933     0.11400
H546        H  0.66842154  0.31376779  0.62625607     0.12600
H547        H  0.62547748  0.30619575  0.65238109     0.11600
H548        H  0.61761225  0.20148852  0.60242802     0.08700
H549        H  0.57338676  0.19762213  0.62664238     0.12000
H550        H  0.58437708  0.27954730  0.66191072     0.13800
C551        C  0.63170237  0.42976033  0.76969466    -0.01700
C552        C  0.61404182  0.42141280  0.79158207    -0.09700
C553        C  0.60136392  0.39501366  0.79119679    -0.18500
C554        C  0.60633074  0.37602367  0.76894467     0.03900
C555        C  0.62473768  0.38458714  0.74719590     0.18000
C556        C  0.63692567  0.41106844  0.74770698    -0.20000
C557        C  0.63086119  0.36680450  0.72477610    -0.21200
C558        C  0.61816939  0.34093369  0.72275085    -0.19800
C559        C  0.59904302  0.33227049  0.74307924     0.19400
C560        C  0.59325828  0.34922902  0.76689613     0.01600
C561        C  0.57377738  0.33900361  0.78679549    -0.14500
C562        C  0.55887360  0.31428289  0.78179715    -0.12200
C563        C  0.56333923  0.29910251  0.75714426     0.01100
C564        C  0.58434946  0.30745192  0.73866619    -0.24400
H565        H  0.61000605  0.43530949  0.80903301     0.09100
H566        H  0.58781226  0.39004503  0.80855521     0.12700
H567        H  0.65104978  0.41694188  0.73092109     0.11400
H568        H  0.64515857  0.37319076  0.70834910     0.12600
H569        H  0.62273330  0.32793875  0.70470048     0.11600
H570        H  0.56865487  0.35031580  0.80566373     0.08700
H571        H  0.54239411  0.30818868  0.79613661     0.12000
H572        H  0.58765715  0.29563553  0.71951299     0.13800
C573        C  0.63293183  0.56816051  0.76537898    -0.01700
C574        C  0.63668415  0.58235333  0.74003514    -0.09700
C575        C  0.62541901  0.60878898  0.73592240    -0.18500
C576        C  0.60937105  0.62197242  0.75698275     0.03900
C577        C  0.60515231  0.60741663  0.78257648     0.18000
C578        C  0.61742604  0.58097622  0.78679144    -0.20000
C579        C  0.58827770  0.61914802  0.80351858    -0.21200
C580        C  0.57464535  0.64449833  0.79916550    -0.19800
C581        C  0.57813300  0.65914093  0.77405346     0.19400
C582        C  0.59641357  0.64854091  0.75304171     0.01600
C583        C  0.60027061  0.66462231  0.72858564    -0.14500
C584        C  0.58441482  0.68853430  0.72389223    -0.12200
C585        C  0.56457157  0.69761120  0.74352060     0.01100
C586        C  0.56246998  0.68362184  0.76919305    -0.24400
H587        H  0.64897593  0.57317246  0.72330575     0.09100
H588        H  0.62924610  0.61806544  0.71575021     0.12700
H589        H  0.61450164  0.57017562  0.80650008     0.11400
H590        H  0.58494683  0.60825662  0.82309905     0.12600
H591        H  0.56095639  0.65251396  0.81540995     0.11600
H592        H  0.61481730  0.65891747  0.71228005     0.08700
H593        H  0.58673058  0.69930565  0.70409137     0.12000
H594        H  0.54714076  0.69052760  0.78447933     0.13800
C595        C  0.74293987  0.43713855  0.70577918    -0.01700
C596        C  0.76923107  0.43958391  0.69304546    -0.09700
C597        C  0.77483444  0.42552621  0.66788786    -0.18500
C598        C  0.75394168  0.40900288  0.65477611     0.03900
C599        C  0.72835386  0.40476174  0.66947576     0.18000
C600        C  0.72334972  0.41844409  0.69482224    -0.20000
C601        C  0.70699534  0.38842501  0.65798132    -0.21200
C602        C  0.70981068  0.37724768  0.63140355    -0.19800
C603        C  0.73409983  0.38204406  0.61578961     0.19400
C604        C  0.75682778  0.39747946  0.62727131     0.01600
C605        C  0.78095664  0.40117650  0.61037721    -0.14500
C606        C  0.78241843  0.38967005  0.58339104    -0.12200
C607        C  0.75976111  0.37460825  0.57232530     0.01100
C608        C  0.73564514  0.37122605  0.58867601    -0.24400
H609        H  0.78460668  0.45406052  0.70130874     0.09100
H610        H  0.79506408  0.42910578  0.65850598     0.12700
H611        H  0.70305351  0.41644055  0.70490443     0.11400
H612        H  0.68758904  0.38499315  0.66927334     0.12600
H613        H  0.69262480  0.36515539  0.62279622     0.11600
H614        H  0.79906545  0.41260659  0.61753923     0.08700
H615        H  0.80145233  0.39226091  0.57131441     0.12000
H616        H  0.71812913  0.35917294  0.58066631     0.13800
C617        C  0.75987512  0.63199149  0.57840100    -0.01700
C618        C  0.73560832  0.63678424  0.59427254    -0.09700
C619        C  0.73240895  0.62529205  0.62071223    -0.18500
C620        C  0.75334238  0.60806177  0.63236281     0.03900
C621        C  0.77809004  0.60323108  0.61644136     0.18000
C622        C  0.78136623  0.61557651  0.58985112    -0.20000
C623        C  0.79898799  0.58553798  0.62689695    -0.21200
C624        C  0.79513851  0.57137451  0.65207165    -0.19800
C625        C  0.77054650  0.57501620  0.66768687     0.19400
C626        C  0.74986889  0.59437508  0.65860445     0.01600
C627        C  0.72596118  0.59831609  0.67561743    -0.14500
C628        C  0.72116267  0.58137776  0.69866773    -0.12200
C629        C  0.74021659  0.56045048  0.70596685     0.01100
C630        C  0.76566173  0.55833484  0.69144867    -0.24400
H631        H  0.71884943  0.64983648  0.58634093     0.09100
H632        H  0.71291137  0.62987478  0.63114487     0.12700
H633        H  0.80032637  0.61192674  0.57786680     0.11400
H634        H  0.81802497  0.58187756  0.61505631     0.12600
H635        H  0.81119491  0.55696514  0.65902116     0.11600
H636        H  0.71003303  0.61364162  0.67121393     0.08700
H637        H  0.70167658  0.58373526  0.71010060     0.12000
H638        H  0.78054193  0.54221923  0.69718248     0.13800
C639        C  0.69983352  0.74118367  0.56752800    -0.01700
C640        C  0.68934177  0.76847091  0.56735866    -0.09700
C641        C  0.66515366  0.77518491  0.58273573    -0.18500
C642        C  0.65067919  0.75444448  0.59816061     0.03900
C643        C  0.66281619  0.72736277  0.59941445     0.18000
C644        C  0.68739846  0.72134886  0.58488343    -0.20000
C645        C  0.64953171  0.70570887  0.61368488    -0.21200
C646        C  0.62361445  0.70990701  0.62583839    -0.19800
C647        C  0.61068292  0.73600678  0.62450169     0.19400
C648        C  0.62414499  0.75897041  0.61139210     0.01600
C649        C  0.61013515  0.78506461  0.61183880    -0.14500
C650        C  0.58375039  0.78793729  0.62459639    -0.12200
C651        C  0.57046207  0.76481743  0.63667973     0.01100
C652        C  0.58422297  0.73903882  0.63643565    -0.24400
H653        H  0.69868626  0.78408640  0.55392299     0.09100
H654        H  0.65744735  0.79625044  0.58099109     0.12700
H655        H  0.69572782  0.70027853  0.58528256     0.11400
H656        H  0.65881712  0.68508666  0.61464287     0.12600
H657        H  0.61347756  0.69249271  0.63615517     0.11600
H658        H  0.61919917  0.80356887  0.60280565     0.08700
H659        H  0.57378182  0.80823638  0.62504590     0.12000
H660        H  0.57462527  0.72110311  0.64638341     0.13800
C661        C  0.73466477  0.43463615  0.30374978    -0.01700
C662        C  0.71664234  0.41304622  0.31153609    -0.09700
C663        C  0.72253096  0.39676041  0.33486142    -0.18500
C664        C  0.74631077  0.40232595  0.35169281     0.03900
C665        C  0.76599910  0.42232843  0.34202595     0.18000
C666        C  0.76014640  0.43812717  0.31797760    -0.20000
C667        C  0.79049721  0.42756952  0.35735662    -0.21200
C668        C  0.79519121  0.41432020  0.38286332    -0.19800
C669        C  0.77513345  0.39611949  0.39395953     0.19400
C670        C  0.75049021  0.38976534  0.37836017     0.01600
C671        C  0.73018574  0.37240979  0.39080837    -0.14500
C672        C  0.73389629  0.36222848  0.41770764    -0.12200
C673        C  0.75815180  0.36834323  0.43312448     0.01100
C674        C  0.77905507  0.38487860  0.42092202    -0.24400
H675        H  0.69720913  0.40959320  0.30027397     0.09100
H676        H  0.70754151  0.38068897  0.33964764     0.12700
H677        H  0.77426166  0.45474640  0.31181601     0.11400
H678        H  0.80578971  0.44253722  0.34991983     0.12600
H679        H  0.81409404  0.41918175  0.39448509     0.11600
H680        H  0.71078486  0.36687974  0.38072325     0.08700
H681        H  0.71760894  0.34907499  0.42635050     0.12000
H682        H  0.79796513  0.38954051  0.43262636     0.13800
C683        C  0.75884157  0.62457543  0.44043835    -0.01700
C684        C  0.78137348  0.60981137  0.42874416    -0.09700
C685        C  0.77859055  0.59638342  0.40274842    -0.18500
C686        C  0.75317285  0.59773782  0.38741862     0.03900
C687        C  0.73047612  0.61272379  0.39956271     0.18000
C688        C  0.73342100  0.62558991  0.42571755    -0.20000
C689        C  0.70487165  0.61510540  0.38549766    -0.21200
C690        C  0.70095691  0.60234811  0.35975284    -0.19800
C691        C  0.72253914  0.58687665  0.34746973     0.19400
C692        C  0.74916587  0.58462336  0.36072619     0.01600
C693        C  0.77018477  0.56884350  0.34687459    -0.14500
C694        C  0.76425576  0.55440451  0.32195884    -0.12200
C695        C  0.73738620  0.55549217  0.31023359     0.01100
C696        C  0.71707606  0.57260761  0.32250599    -0.24400
H697        H  0.80130651  0.60886263  0.43958108     0.09100
H698        H  0.79672964  0.58534909  0.39505831     0.12700
H699        H  0.71589554  0.63727405  0.43422985     0.11400
H700        H  0.68762407  0.62673371  0.39460352     0.12600
H701        H  0.68069992  0.60419307  0.34959235     0.11600
H702        H  0.79103766  0.56650700  0.35529229     0.08700
H703        H  0.78014322  0.54104600  0.31282786     0.12000
H704        H  0.69626358  0.57354114  0.31331284     0.13800
C705        C  0.57080695  0.75499973  0.37514823    -0.01700
C706        C  0.58430175  0.72901404  0.37445015    -0.09700
C707        C  0.61069127  0.72547120  0.38621498    -0.18500
C708        C  0.62464218  0.74788353  0.39940316     0.03900
C709        C  0.61043422  0.77384759  0.40153258     0.18000
C710        C  0.58394067  0.77736393  0.38896898    -0.20000
C711        C  0.62266390  0.79590356  0.41649191    -0.21200
C712        C  0.64817954  0.79226526  0.43031559    -0.19800
C713        C  0.66266887  0.76690694  0.42841040     0.19400
C714        C  0.65168752  0.74492895  0.41164508     0.01600
C715        C  0.66801761  0.72062087  0.40822636    -0.14500
C716        C  0.69225842  0.71673285  0.42383011    -0.12200
C717        C  0.70117419  0.73693895  0.44307649     0.01100
C718        C  0.68732795  0.76271606  0.44414863    -0.24400
H719        H  0.57469646  0.71122493  0.36421812     0.09100
H720        H  0.61934746  0.70474176  0.38513485     0.12700
H721        H  0.57360848  0.79747933  0.38994727     0.11400
H722        H  0.61199983  0.81578753  0.41827668     0.12600
H723        H  0.65653340  0.80930970  0.44270791     0.11600
H724        H  0.66228027  0.70396475  0.39416120     0.08700
H725        H  0.70315519  0.69693386  0.42219394     0.12000
H726        H  0.69433220  0.77852546  0.45884112     0.13800
C727        C  0.62945751  0.56994219  0.24550256    -0.01700
C728        C  0.63090765  0.58417454  0.27115703    -0.09700
C729        C  0.61978824  0.61075068  0.27422904    -0.18500
C730        C  0.60633949  0.62424646  0.25170881     0.03900
C731        C  0.60366521  0.60955758  0.22596108     0.18000
C732        C  0.61575544  0.58282248  0.22284023    -0.20000
C733        C  0.58842125  0.62148663  0.20388282    -0.21200
C734        C  0.57457771  0.64694402  0.20747057    -0.19800
C735        C  0.57676155  0.66170889  0.23276622     0.19400
C736        C  0.59410747  0.65120729  0.25454511     0.01600
C737        C  0.59786695  0.66777868  0.27872587    -0.14500
C738        C  0.58191960  0.69164775  0.28290526    -0.12200
C739        C  0.56222653  0.70015282  0.26299052     0.01100
C740        C  0.56073941  0.68611333  0.23719884    -0.24400
H741        H  0.64117678  0.57494612  0.28913990     0.09100
H742        H  0.62140800  0.61983468  0.29481243     0.12700
H743        H  0.61430106  0.57202666  0.20292594     0.11400
H744        H  0.58626697  0.61055108  0.18410979     0.12600
H745        H  0.56184193  0.65496290  0.19049928     0.11600
H746        H  0.61242696  0.66247316  0.29512706     0.08700
H747        H  0.58376974  0.70267776  0.30267889     0.12000
H748        H  0.54565083  0.69282311  0.22161808     0.13800
C749        C  0.37257251  0.43013305  0.77424531    -0.01700
C750        C  0.38886293  0.41984745  0.79638291    -0.09700
C751        C  0.40198486  0.39366100  0.79423116    -0.18500
C752        C  0.39871632  0.37686675  0.76992079     0.03900
C753        C  0.38144320  0.38730935  0.74806997     0.18000
C754        C  0.36891487  0.41349996  0.75035672    -0.20000
C755        C  0.37673458  0.37171484  0.72375378    -0.21200
C756        C  0.38966231  0.34615774  0.72004879    -0.19800
C757        C  0.40770585  0.33565836  0.74051474     0.19400
C758        C  0.41221815  0.35043995  0.76602409     0.01600
C759        C  0.43077133  0.33847402  0.78584215    -0.14500
C760        C  0.44564745  0.31397600  0.77958198    -0.12200
C761        C  0.44225133  0.30074014  0.75360032     0.01100
C762        C  0.42237831  0.31106842  0.73478495    -0.24400
H763        H  0.39158163  0.43208943  0.81528219     0.09100
H764        H  0.41446749  0.38707763  0.81183776     0.12700
H765        H  0.35571785  0.42076341  0.73336042     0.11400
H766        H  0.36329411  0.37955983  0.70723316     0.12600
H767        H  0.38608690  0.33485357  0.70067332     0.11600
H768        H  0.43505545  0.34818736  0.80576620     0.08700
H769        H  0.46117083  0.30643933  0.79431856     0.12000
H770        H  0.41963214  0.30079829  0.71468034     0.13800
C771        C  0.44182749  0.69577705  0.74508594    -0.01700
C772        C  0.44106004  0.68605435  0.77269327    -0.09700
C773        C  0.42567111  0.66208428  0.77943631    -0.18500
C774        C  0.41073442  0.64720228  0.75853126     0.03900
C775        C  0.41005523  0.65865041  0.73106888     0.18000
C776        C  0.42533083  0.68266852  0.72474525    -0.20000
C777        C  0.39523041  0.64540928  0.70958759    -0.21200
C778        C  0.38196664  0.62022157  0.71438330    -0.19800
C779        C  0.38333327  0.60765667  0.74072890     0.19400
C780        C  0.39723172  0.62102218  0.76342379     0.01600
C781        C  0.39752304  0.60716072  0.78961992    -0.14500
C782        C  0.38476667  0.58100698  0.79287568    -0.12200
C783        C  0.37165491  0.56785308  0.77011430     0.01100
C784        C  0.37095238  0.58154110  0.74424236    -0.24400
H785        H  0.45369584  0.69598769  0.78871833     0.09100
H786        H  0.42663608  0.65516990  0.80087960     0.12700
H787        H  0.42558032  0.69041842  0.70340562     0.11400
H788        H  0.39445684  0.65426304  0.68872763     0.12600
H789        H  0.37104986  0.61019555  0.69716079     0.11600
H790        H  0.40748166  0.61596439  0.80788276     0.08700
H791        H  0.38516309  0.57108680  0.81322961     0.12000
H792        H  0.36029251  0.57199950  0.72657646     0.13800
C793        C  0.26316174  0.55653515  0.70395734    -0.01700
C794        C  0.23666432  0.55426989  0.69155857    -0.09700
C795        C  0.23056035  0.56881199  0.66687927    -0.18500
C796        C  0.25105674  0.58585915  0.65395296     0.03900
C797        C  0.27730978  0.58905991  0.66778054     0.18000
C798        C  0.28288308  0.57477344  0.69257270    -0.20000
C799        C  0.29848964  0.60550479  0.65623530    -0.21200
C800        C  0.29456378  0.61835410  0.63065391    -0.19800
C801        C  0.26929414  0.61520915  0.61616741     0.19400
C802        C  0.24692705  0.59931206  0.62759449     0.01600
C803        C  0.22169784  0.59753028  0.61196133    -0.14500
C804        C  0.21889238  0.61125525  0.58621418    -0.12200
C805        C  0.24127443  0.62659550  0.57517323     0.01100
C806        C  0.26637504  0.62823195  0.59027940    -0.24400
H807        H  0.22127419  0.53994569  0.69997461     0.09100
H808        H  0.21009495  0.56550441  0.65788115     0.12700
H809        H  0.30340324  0.57658894  0.70227429     0.11400
H810        H  0.31846491  0.60800636  0.66681209     0.12600
H811        H  0.31151466  0.63071539  0.62204556     0.11600
H812        H  0.20374057  0.58598178  0.61922270     0.08700
H813        H  0.19919397  0.60993953  0.57498801     0.12000
H814        H  0.28368321  0.64052592  0.58225779     0.13800
C815        C  0.30475214  0.73851076  0.44748438    -0.01700
C816        C  0.31546646  0.71751616  0.43016498    -0.09700
C817        C  0.34012460  0.72148925  0.41537006    -0.18500
C818        C  0.35509385  0.74674447  0.41763332     0.03900
C819        C  0.34243306  0.76930430  0.43225169     0.18000
C820        C  0.31739755  0.76495820  0.44742569    -0.20000
C821        C  0.35551071  0.79550753  0.43233124    -0.21200
C822        C  0.38097422  0.79951099  0.41839621    -0.19800
C823        C  0.39472213  0.77704875  0.40544320     0.19400
C824        C  0.38224034  0.75017254  0.40587923     0.01600
C825        C  0.39784625  0.72742984  0.39553524    -0.14500
C826        C  0.42380699  0.73143027  0.38316244    -0.12200
C827        C  0.43524464  0.75822793  0.38029017     0.01100
C828        C  0.42083871  0.78102353  0.39209793    -0.24400
H829        H  0.30551864  0.69720453  0.42938460     0.09100
H830        H  0.34715199  0.70428025  0.40260380     0.12700
H831        H  0.30896692  0.78138604  0.46058757     0.11400
H832        H  0.34593322  0.81300336  0.44307886     0.12600
H833        H  0.39034232  0.82010362  0.41842847     0.11600
H834        H  0.39074761  0.70614570  0.39713410     0.08700
H835        H  0.43455623  0.71323935  0.37499818     0.12000
H836        H  0.42970537  0.80178366  0.39062418     0.13800
C837        C  0.30301535  0.74075600  0.56951307    -0.01700
C838        C  0.31665277  0.76612843  0.56470671    -0.09700
C839        C  0.34092703  0.77298267  0.57964396    -0.18500
C840        C  0.35217921  0.75436429  0.59968767     0.03900
C841        C  0.33662735  0.72981721  0.60596920     0.18000
C842        C  0.31225622  0.72344056  0.59108643    -0.20000
C843        C  0.34629496  0.71080901  0.62587319    -0.21200
C844        C  0.37193940  0.71484140  0.63876758    -0.19800
C845        C  0.38844286  0.73793585  0.63198424     0.19400
C846        C  0.37874048  0.75844456  0.61286954     0.01600
C847        C  0.39648866  0.78151118  0.60727366    -0.14500
C848        C  0.42294044  0.78370113  0.61990189    -0.12200
C849        C  0.43244465  0.76283968  0.63803846     0.01100
C850        C  0.41488281  0.74027372  0.64410733    -0.24400
H851        H  0.30974643  0.77973460  0.54797646     0.09100
H852        H  0.35103921  0.79230598  0.57419634     0.12700
H853        H  0.30147683  0.70388554  0.59494767     0.11400
H854        H  0.33434290  0.69224256  0.63086940     0.12600
H855        H  0.37923276  0.69940026  0.65365212     0.11600
H856        H  0.39058947  0.79803306  0.59320402     0.08700
H857        H  0.43603128  0.80157577  0.61531417     0.12000
H858        H  0.42168181  0.72438075  0.65875668     0.13800
C859        C  0.24430968  0.36892430  0.57852017    -0.01700
C860        C  0.22237637  0.38547387  0.58876126    -0.09700
C861        C  0.22379458  0.39701933  0.61571972    -0.18500
C862        C  0.24724885  0.39211585  0.63329794     0.03900
C863        C  0.26905180  0.37479259  0.62285545     0.18000
C864        C  0.26734633  0.36347701  0.59594473    -0.20000
C865        C  0.29286212  0.36924828  0.63903301    -0.21200
C866        C  0.29643688  0.38203628  0.66482343    -0.19800
C867        C  0.27605469  0.40027771  0.67517064     0.19400
C868        C  0.25058392  0.40466950  0.66026654     0.01600
C869        C  0.23026532  0.42242604  0.67252896    -0.14500
C870        C  0.23639340  0.43759687  0.69683764    -0.12200
C871        C  0.26275200  0.43530778  0.70949337     0.01100
C872        C  0.28182564  0.41551339  0.69950151    -0.24400
H873        H  0.20414967  0.38960615  0.57587943     0.09100
H874        H  0.20643277  0.40997962  0.62206531     0.12700
H875        H  0.28420440  0.35013734  0.58860481     0.11400
H876        H  0.30932367  0.35570202  0.63123823     0.12600
H877        H  0.31566118  0.37829940  0.67635553     0.11600
H878        H  0.20997741  0.42589587  0.66318886     0.08700
H879        H  0.22131980  0.45272218  0.70445552     0.12000
H880        H  0.30211160  0.41343675  0.70961549     0.13800
C881        C  0.30814262  0.26068069  0.56859496    -0.01700
C882        C  0.31909956  0.23356758  0.56834387    -0.09700
C883        C  0.34300002  0.22698548  0.58428471    -0.18500
C884        C  0.35660332  0.24754389  0.60084147     0.03900
C885        C  0.34375940  0.27427669  0.60264104     0.18000
C886        C  0.31987012  0.28044876  0.58676182    -0.20000
C887        C  0.35554651  0.29530155  0.61920195    -0.21200
C888        C  0.38065737  0.29089261  0.63309444    -0.19800
C889        C  0.39472444  0.26542164  0.63060117     0.19400
C890        C  0.38282970  0.24310118  0.61492301     0.01600
C891        C  0.39818101  0.21779758  0.61351601    -0.14500
C892        C  0.42427906  0.21502665  0.62694497    -0.12200
C893        C  0.43602245  0.23744294  0.64182295     0.01100
C894        C  0.42086769  0.26243310  0.64361061    -0.24400
H895        H  0.31029669  0.21794743  0.55447135     0.09100
H896        H  0.35095572  0.20600183  0.58248531     0.12700
H897        H  0.31121585  0.30138681  0.58731971     0.11400
H898        H  0.34562225  0.31558252  0.62086671     0.12600
H899        H  0.38948773  0.30780825  0.64536126     0.11600
H900        H  0.39057605  0.19988844  0.60211522     0.08700
H901        H  0.43532807  0.19532790  0.62560699     0.12000
H902        H  0.42927170  0.27973248  0.65565661     0.13800
C903        C  0.36595406  0.57697162  0.24434530    -0.01700
C904        C  0.38501024  0.58519608  0.22365637    -0.09700
C905        C  0.39702901  0.61183098  0.22429884    -0.18500
C906        C  0.39020541  0.63113027  0.24575268     0.03900
C907        C  0.36999504  0.62294928  0.26599694     0.18000
C908        C  0.35806181  0.59628389  0.26499525    -0.20000
C909        C  0.36255005  0.64099778  0.28783635    -0.21200
C910        C  0.37652367  0.66612809  0.29146314    -0.19800
C911        C  0.39778179  0.67401067  0.27295094     0.19400
C912        C  0.40385476  0.65749183  0.24892246     0.01600
C913        C  0.42446478  0.66742760  0.23009226    -0.14500
C914        C  0.44078220  0.69076017  0.23676999    -0.12200
C915        C  0.43687733  0.70472843  0.26221094     0.01100
C916        C  0.41433850  0.69729298  0.27938811    -0.24400
H917        H  0.39104430  0.57081822  0.20720030     0.09100
H918        H  0.41213258  0.61642634  0.20817652     0.12700
H919        H  0.34272733  0.59042933  0.28067822     0.11400
H920        H  0.34675877  0.63503905  0.30300545     0.12600
H921        H  0.37139452  0.67898237  0.30945758     0.11600
H922        H  0.42927714  0.65691069  0.21070224     0.08700
H923        H  0.45796312  0.69645601  0.22310240     0.12000
H924        H  0.41101645  0.70846574  0.29890394     0.13800
C925        C  0.25721295  0.56052617  0.30924461    -0.01700
C926        C  0.27407149  0.58366919  0.31482513    -0.09700
C927        C  0.27075694  0.59876230  0.33943057    -0.18500
C928        C  0.25063637  0.59070075  0.35952219     0.03900
C929        C  0.23148275  0.56912285  0.35239722     0.18000
C930        C  0.23503030  0.55402117  0.32731591    -0.20000
C931        C  0.20985983  0.56209379  0.37094837    -0.21200
C932        C  0.20707294  0.57598213  0.39651223    -0.19800
C933        C  0.22666582  0.59621722  0.40467908     0.19400
C934        C  0.24920544  0.60313365  0.38653042     0.01600
C935        C  0.27012053  0.62140332  0.39651999    -0.14500
C936        C  0.26790253  0.63365143  0.42274972    -0.12200
C937        C  0.24470613  0.62846506  0.43993451     0.01100
C938        C  0.22418713  0.60945413  0.43093640    -0.24400
H939        H  0.29116640  0.58898322  0.30087026     0.09100
H940        H  0.28464219  0.61623925  0.34237251     0.12700
H941        H  0.22204976  0.53595252  0.32298498     0.11400
H942        H  0.19501216  0.54581032  0.36563851     0.12600
H943        H  0.18995898  0.57033243  0.41028921     0.11600
H944        H  0.28876880  0.62625682  0.38480512     0.08700
H945        H  0.28426577  0.64793663  0.42925492     0.12000
H946        H  0.20647899  0.60486078  0.44436996     0.13800
C947        C  0.26812573  0.43791788  0.30831971    -0.01700
C948        C  0.28923812  0.42051327  0.31879140    -0.09700
C949        C  0.28476389  0.40435258  0.34250660    -0.18500
C950        C  0.25895094  0.40543360  0.35695921     0.03900
C951        C  0.23658444  0.42069076  0.34459482     0.18000
C952        C  0.24128869  0.43671131  0.32028962    -0.20000
C953        C  0.21019388  0.42103060  0.35747268    -0.21200
C954        C  0.20593948  0.40764629  0.38303523    -0.19800
C955        C  0.22813855  0.39418320  0.39670896     0.19400
C956        C  0.25493418  0.39279990  0.38369950     0.01600
C957        C  0.27700843  0.38000640  0.39859462    -0.14500
C958        C  0.27278900  0.36926698  0.42525445    -0.12200
C959        C  0.24639375  0.37037475  0.43815507     0.01100
C960        C  0.22395471  0.38256191  0.42354149    -0.24400
H961        H  0.30992035  0.42049398  0.30939534     0.09100
H962        H  0.30224936  0.39192102  0.34942238     0.12700
H963        H  0.22474901  0.44991458  0.31212191     0.11400
H964        H  0.19288183  0.43222869  0.34801702     0.12600
H965        H  0.18537154  0.40865108  0.39262655     0.11600
H966        H  0.29802849  0.37839954  0.39053557     0.08700
H967        H  0.29044322  0.35946880  0.43560970     0.12000
H968        H  0.20337626  0.38330490  0.43314678     0.13800
C969        C  0.70172646  0.26086251  0.44211036    -0.01700
C970        C  0.69512695  0.27923373  0.42038947    -0.09700
C971        C  0.67194506  0.27455835  0.40330914    -0.18500
C972        C  0.65404904  0.25152967  0.40795587     0.03900
C973        C  0.66232657  0.23148548  0.42825702     0.18000
C974        C  0.68617585  0.23624631  0.44510568    -0.20000
C975        C  0.64587747  0.20767017  0.43258043    -0.21200
C976        C  0.62082861  0.20388394  0.41794549    -0.19800
C977        C  0.61119620  0.22418331  0.39918254     0.19400
C978        C  0.62777826  0.24829452  0.39395709     0.01600
C979        C  0.61675331  0.26888230  0.37598628    -0.14500
C980        C  0.59043678  0.26582602  0.36389232    -0.12200
C981        C  0.57406916  0.24202973  0.36875726     0.01100
C982        C  0.58478573  0.22096742  0.38613171    -0.24400
H983        H  0.70719205  0.29816251  0.41756874     0.09100
H984        H  0.66814715  0.28987569  0.38726040     0.12700
H985        H  0.69122395  0.22201209  0.46199415     0.11400
H986        H  0.65216175  0.19210948  0.44776858     0.12600
H987        H  0.60844729  0.18538826  0.42203849     0.11600
H988        H  0.62760924  0.28801615  0.37129916     0.08700
H989        H  0.58301226  0.28228052  0.35024494     0.12000
H990        H  0.57234648  0.20245255  0.39000640     0.13800
C991        C  0.43547223  0.24406989  0.37300720    -0.01700
C992        C  0.42487066  0.22186213  0.38879074    -0.09700
C993        C  0.39876163  0.22399486  0.40201351    -0.18500
C994        C  0.38224518  0.24842555  0.39948283     0.03900
C995        C  0.39299081  0.27061557  0.38296275     0.18000
C996        C  0.41928411  0.26831847  0.37020425    -0.20000
C997        C  0.37754006  0.29513478  0.37927769    -0.21200
C998        C  0.35201195  0.29867380  0.39265332    -0.19800
C999        C  0.34137414  0.27777614  0.41001870     0.19400
C1000       C  0.35585650  0.25203510  0.41321139     0.01600
C1001       C  0.34371746  0.23158745  0.43082657    -0.14500
C1002       C  0.31960124  0.23749172  0.44644964    -0.12200
C1003       C  0.30690995  0.26373004  0.44473112     0.01100
C1004       C  0.31707490  0.28319053  0.42545756    -0.24400
H1005       H  0.43677313  0.20273450  0.39088998     0.09100
H1006       H  0.39207442  0.20619161  0.41399694     0.12700
H1007       H  0.42690480  0.28541969  0.35747196     0.11400
H1008       H  0.38551693  0.31193202  0.36637745     0.12600
H1009       H  0.34087687  0.31821692  0.39000414     0.11600
H1010       H  0.35301169  0.21133942  0.43388888     0.08700
H1011       H  0.31205890  0.22221913  0.46133464     0.12000
H1012       H  0.30706159  0.30346771  0.42390428     0.13800
C1013       C  0.56356791  0.30099819  0.25703909    -0.01700
C1014       C  0.55957785  0.31402896  0.23117984    -0.09700
C1015       C  0.57441606  0.33829983  0.22460849    -0.18500
C1016       C  0.59342050  0.35019349  0.24405436     0.03900
C1017       C  0.59923878  0.33505568  0.26900270     0.18000
C1018       C  0.58456657  0.31059884  0.27503974    -0.20000
C1019       C  0.61819197  0.34535859  0.28880156    -0.21200
C1020       C  0.63025998  0.37135939  0.28527976    -0.19800
C1021       C  0.62360715  0.38756710  0.26189677     0.19400
C1022       C  0.60576474  0.37707653  0.24047774     0.01600
C1023       C  0.60037681  0.39442934  0.21705788    -0.14500
C1024       C  0.61193795  0.42122910  0.21535314    -0.12200
C1025       C  0.62858388  0.43155263  0.23714487     0.01100
C1026       C  0.63450102  0.41448264  0.26012409    -0.24400
H1027       H  0.54334587  0.30679744  0.21703822     0.09100
H1028       H  0.56950026  0.34802051  0.20487308     0.12700
H1029       H  0.58778803  0.30024871  0.29498695     0.11400
H1030       H  0.62291401  0.33368237  0.30764755     0.12600
H1031       H  0.64428217  0.37918559  0.30136961     0.11600
H1032       H  0.58728993  0.38792662  0.19982858     0.08700
H1033       H  0.60765269  0.43398703  0.19715055     0.12000
H1034       H  0.64817059  0.42206858  0.27665436     0.13800
C1035       C  0.37491293  0.43813008  0.24764605    -0.01700
C1036       C  0.37326598  0.42412321  0.27331494    -0.09700
C1037       C  0.38438457  0.39750382  0.27648475    -0.18500
C1038       C  0.39808081  0.38394426  0.25404861     0.03900
C1039       C  0.40094537  0.39862477  0.22837511     0.18000
C1040       C  0.38881729  0.42524818  0.22516841    -0.20000
C1041       C  0.41614325  0.38670776  0.20627082    -0.21200
C1042       C  0.42938398  0.36096470  0.20951379    -0.19800
C1043       C  0.42680063  0.34598284  0.23454344     0.19400
C1044       C  0.41001294  0.35679249  0.25666090     0.01600
C1045       C  0.40633866  0.34019574  0.28076766    -0.14500
C1046       C  0.42138654  0.31560283  0.28420045    -0.12200
C1047       C  0.44020042  0.30642855  0.26366982     0.01100
C1048       C  0.44184165  0.32089483  0.23822685    -0.24400
H1049       H  0.36244451  0.43341088  0.29097478     0.09100
H1050       H  0.38230160  0.38832850  0.29693433     0.12700
H1051       H  0.39026676  0.43595717  0.20525190     0.11400
H1052       H  0.41850008  0.39773870  0.18662880     0.12600
H1053       H  0.44187161  0.35280709  0.19240442     0.11600
H1054       H  0.39251050  0.34594278  0.29763684     0.08700
H1055       H  0.41948585  0.30441441  0.30381892     0.12000
H1056       H  0.45636777  0.31384905  0.22225307     0.13800
C1057       C  0.66659740  0.93473501  0.78093695    -0.01700
C1058       C  0.65691470  0.91618310  0.80144722    -0.09700
C1059       C  0.63763368  0.89536448  0.79486208    -0.18500
C1060       C  0.62708583  0.89251355  0.76737447     0.03900
C1061       C  0.63713766  0.91126088  0.74656801     0.18000
C1062       C  0.65690777  0.93188656  0.75342294    -0.20000
C1063       C  0.62701357  0.90967967  0.71913169    -0.21200
C1064       C  0.60677614  0.89014869  0.71194031    -0.19800
C1065       C  0.59634169  0.87159261  0.73196322     0.19400
C1066       C  0.60655437  0.87214458  0.75988961     0.01600
C1067       C  0.59552532  0.85246545  0.77906479    -0.14500
C1068       C  0.57461512  0.83367227  0.77095577    -0.12200
C1069       C  0.56406579  0.83390154  0.74360095     0.01100
C1070       C  0.57542065  0.85267425  0.72416638    -0.24400
H1071       H  0.66419105  0.91781518  0.82289179     0.09100
H1072       H  0.63111519  0.88217220  0.81185851     0.12700
H1073       H  0.66411165  0.94626695  0.73748362     0.11400
H1074       H  0.63453872  0.92388489  0.70319385     0.12600
H1075       H  0.59908732  0.88968060  0.69057559     0.11600
H1076       H  0.60247048  0.85112312  0.80046912     0.08700
H1077       H  0.56640477  0.81921164  0.78629636     0.12000
H1078       H  0.56780441  0.85279549  0.70276507     0.13800
C1079       C  0.66856524  0.06176923  0.78147249    -0.01700
C1080       C  0.66868001  0.07285271  0.75439537    -0.09700
C1081       C  0.65019807  0.09413244  0.74704297    -0.18500
C1082       C  0.63088953  0.10511271  0.76669090     0.03900
C1083       C  0.63140194  0.09430859  0.79436082     0.18000
C1084       C  0.65006980  0.07286432  0.80144182    -0.20000
C1085       C  0.61301236  0.10467219  0.81472022    -0.21200
C1086       C  0.59352599  0.12515971  0.80801021    -0.19800
C1087       C  0.59187705  0.13565399  0.78074162     0.19400
C1088       C  0.61075423  0.12598807  0.75975862     0.01600
C1089       C  0.60818699  0.13713691  0.73254265    -0.14500
C1090       C  0.58707221  0.15606649  0.72614792    -0.12200
C1091       C  0.56797379  0.16489221  0.74660148     0.01100
C1092       C  0.57092946  0.15520000  0.77409047    -0.24400
H1093       H  0.68282576  0.06474885  0.73861170     0.09100
H1094       H  0.65147229  0.10131506  0.72571695     0.12700
H1095       H  0.65002693  0.06467352  0.82260026     0.11400
H1096       H  0.61346710  0.09662507  0.83591730     0.12600
H1097       H  0.57931711  0.13248267  0.82413264     0.11600
H1098       H  0.62176399  0.13129037  0.71549079     0.08700
H1099       H  0.58551172  0.16363162  0.70483372     0.12000
H1100       H  0.55622643  0.16196864  0.79003086     0.13800
C1101       C  0.73233614  0.43858637  0.16793800    -0.01700
C1102       C  0.75930019  0.42709844  0.16947867    -0.09700
C1103       C  0.76783701  0.40640771  0.15070118    -0.18500
C1104       C  0.74951564  0.39633265  0.12966238     0.03900
C1105       C  0.72177811  0.40713714  0.12894222     0.18000
C1106       C  0.71356709  0.42818342  0.14777168    -0.20000
C1107       C  0.70242090  0.39695894  0.10936028    -0.21200
C1108       C  0.71005293  0.37629421  0.09033393    -0.19800
C1109       C  0.73741581  0.36574850  0.08997537     0.19400
C1110       C  0.75768276  0.37593443  0.10936854     0.01600
C1111       C  0.78542236  0.36577259  0.10713120    -0.14500
C1112       C  0.79263739  0.34631541  0.08662238    -0.12200
C1113       C  0.77247118  0.33585064  0.06805764     0.01100
C1114       C  0.74481821  0.34546432  0.06994451    -0.24400
H1115       H  0.77410375  0.43437825  0.18508408     0.09100
H1116       H  0.78884023  0.39860662  0.15335058     0.12700
H1117       H  0.69242730  0.43643979  0.14671111     0.11400
H1118       H  0.68118209  0.40498828  0.10880269     0.12600
H1119       H  0.69454976  0.36881313  0.07550836     0.11600
H1120       H  0.80219323  0.37293762  0.12042609     0.08700
H1121       H  0.81422146  0.33935208  0.08526855     0.12000
H1122       H  0.72931745  0.33791283  0.05513361     0.13800
C1123       C  0.73335933  0.43547910  0.84184487    -0.01700
C1124       C  0.76182998  0.43100232  0.84713619    -0.09700
C1125       C  0.77044354  0.41061163  0.86594871    -0.18500
C1126       C  0.75071669  0.39379362  0.88019812     0.03900
C1127       C  0.72185473  0.39753935  0.87393305     0.18000
C1128       C  0.71342981  0.41840003  0.85506710    -0.20000
C1129       C  0.70164417  0.38059186  0.88669603    -0.21200
C1130       C  0.70950533  0.36024146  0.90595113    -0.19800
C1131       C  0.73771448  0.35667781  0.91327545     0.19400
C1132       C  0.75866503  0.37351916  0.90049710     0.01600
C1133       C  0.78671745  0.36981564  0.90900375    -0.14500
C1134       C  0.79372416  0.35034903  0.92925638    -0.12200
C1135       C  0.77319298  0.33375770  0.94205209     0.01100
C1136       C  0.74513706  0.33681049  0.93371575    -0.24400
H1137       H  0.77765296  0.44371156  0.83707388     0.09100
H1138       H  0.79272548  0.40861648  0.86874431     0.12700
H1139       H  0.69131076  0.42137775  0.85074756     0.11400
H1140       H  0.67959863  0.38315311  0.88181817     0.12600
H1141       H  0.69336909  0.34752441  0.91551640     0.11600
H1142       H  0.80382349  0.38196751  0.90090604     0.08700
H1143       H  0.81559351  0.34868185  0.93516732     0.12000
H1144       H  0.72902605  0.32427933  0.94357733     0.13800
C1145       C  0.76901959  0.19413570  0.94998554    -0.01700
C1146       C  0.74124222  0.18492931  0.94808740    -0.09700
C1147       C  0.73493984  0.15975895  0.93434760    -0.18500
C1148       C  0.75649193  0.14302241  0.92254751     0.03900
C1149       C  0.78436532  0.15342620  0.92362601     0.18000
C1150       C  0.79013301  0.17885964  0.93659279    -0.20000
C1151       C  0.80672596  0.13792696  0.91285739    -0.21200
C1152       C  0.80217555  0.11184661  0.90131394    -0.19800
C1153       C  0.77510968  0.10082370  0.89992619     0.19400
C1154       C  0.75174387  0.11620627  0.91021408     0.01600
C1155       C  0.72485562  0.10397607  0.90762820    -0.14500
C1156       C  0.72140766  0.07790128  0.89477715    -0.12200
C1157       C  0.74462915  0.06306602  0.88457033     0.01100
C1158       C  0.77139951  0.07457943  0.88772063    -0.24400
H1159       H  0.72465508  0.19632441  0.95855904     0.09100
H1160       H  0.71326141  0.15341443  0.93424068     0.12700
H1161       H  0.81168333  0.18604343  0.93780037     0.11400
H1162       H  0.82799636  0.14584663  0.91378768     0.12600
H1163       H  0.81998751  0.10023035  0.89333892     0.11600
H1164       H  0.70610134  0.11428890  0.91482608     0.08700
H1165       H  0.70043178  0.06956890  0.89239424     0.12000
H1166       H  0.78954135  0.06355534  0.87961327     0.13800
C1167       C  0.93859654  0.76422679  0.67369262    -0.01700
C1168       C  0.93277099  0.73606213  0.66870087    -0.09700
C1169       C  0.91257536  0.72826110  0.64892359    -0.18500
C1170       C  0.89746986  0.74854481  0.63345305     0.03900
C1171       C  0.90284899  0.77707569  0.63930744     0.18000
C1172       C  0.92311763  0.78457471  0.65920791    -0.20000
C1173       C  0.88827366  0.79804094  0.62500168    -0.21200
C1174       C  0.86849791  0.79128765  0.60469240    -0.19800
C1175       C  0.86292343  0.76340233  0.59805591     0.19400
C1176       C  0.87739504  0.74162842  0.61230717     0.01600
C1177       C  0.87140340  0.71387312  0.60450399    -0.14500
C1178       C  0.85203721  0.70798519  0.58349833    -0.12200
C1179       C  0.83773866  0.72939828  0.56946427     0.01100
C1180       C  0.84316279  0.75714009  0.57701929    -0.24400
H1181       H  0.94431911  0.71995105  0.67962985     0.09100
H1182       H  0.90947349  0.70618136  0.64611766     0.12700
H1183       H  0.92709872  0.80650820  0.66312112     0.11400
H1184       H  0.89229434  0.81985313  0.62946491     0.12600
H1185       H  0.85765006  0.80801054  0.59393970     0.11600
H1186       H  0.88150234  0.69616206  0.61401430     0.08700
H1187       H  0.84827713  0.68631497  0.57823315     0.12000
H1188       H  0.83242857  0.77388655  0.56616901     0.13800
C1189       C  0.06599693  0.76697771  0.67314142    -0.01700
C1190       C  0.07643748  0.73968022  0.67281908    -0.09700
C1191       C  0.09739684  0.73188074  0.65396286    -0.18500
C1192       C  0.10868746  0.75129695  0.63473464     0.03900
C1193       C  0.09862647  0.77917350  0.63577888     0.18000
C1194       C  0.07744844  0.78665640  0.65469079    -0.20000
C1195       C  0.10957612  0.79944030  0.61779862    -0.21200
C1196       C  0.13020608  0.79256643  0.59847136    -0.19800
C1197       C  0.13999800  0.76515358  0.59630046     0.19400
C1198       C  0.12933783  0.74406089  0.61433961     0.01600
C1199       C  0.13926282  0.71651973  0.61062851    -0.14500
C1200       C  0.15829478  0.71013917  0.58943983    -0.12200
C1201       C  0.16851587  0.73096241  0.57165428     0.01100
C1202       C  0.15981631  0.75854231  0.57558899    -0.24400
H1203       H  0.06812244  0.72410821  0.68695461     0.09100
H1204       H  0.10427719  0.71051297  0.65500230     0.12700
H1205       H  0.06981217  0.80796143  0.65493096     0.11400
H1206       H  0.10205887  0.82076335  0.61862440     0.12600
H1207       H  0.13817201  0.80870741  0.58475292     0.11600
H1208       H  0.13221419  0.69929528  0.62322552     0.08700
H1209       H  0.16495843  0.68867192  0.58682624     0.12000
H1210       H  0.16752394  0.77466475  0.56167958     0.13800
C1211       C  0.80086821  0.93617659  0.76645049    -0.01700
C1212       C  0.81494336  0.94070937  0.74122248    -0.09700
C1213       C  0.83859716  0.92486497  0.73440727    -0.18500
C1214       C  0.84876406  0.90417544  0.75294459     0.03900
C1215       C  0.83259192  0.89814597  0.77724018     0.18000
C1216       C  0.80893927  0.91414270  0.78371110    -0.20000
C1217       C  0.84104965  0.87738253  0.79591470    -0.21200
C1218       C  0.86622948  0.86352286  0.79195338    -0.19800
C1219       C  0.88358124  0.87032632  0.76937721     0.19400
C1220       C  0.87495108  0.89022873  0.74911611     0.01600
C1221       C  0.89349561  0.89606975  0.72669537    -0.14500
C1222       C  0.91980681  0.88322288  0.72502468    -0.12200
C1223       C  0.92841367  0.86441788  0.74568045     0.01100
C1224       C  0.90992170  0.85774985  0.76745254    -0.24400
H1225       H  0.80888535  0.95785770  0.72776945     0.09100
H1226       H  0.84912110  0.93009034  0.71514874     0.12700
H1227       H  0.79784769  0.91072992  0.80325839     0.11400
H1228       H  0.82855001  0.87246609  0.81421159     0.12600
H1229       H  0.87262079  0.84803301  0.80719009     0.11600
H1230       H  0.88846739  0.91076935  0.71040005     0.08700
H1231       H  0.93361183  0.88835319  0.70778896     0.12000
H1232       H  0.91609152  0.84266698  0.78319812     0.13800
C1233       C  0.33461661  0.06348178  0.77548199    -0.01700
C1234       C  0.34383025  0.08149618  0.79670089    -0.09700
C1235       C  0.36308616  0.10250935  0.79113312    -0.18500
C1236       C  0.37423759  0.10595882  0.76399403     0.03900
C1237       C  0.36385932  0.08842353  0.74218711     0.18000
C1238       C  0.34396482  0.06756220  0.74804103    -0.20000
C1239       C  0.37397407  0.09134083  0.71486525    -0.21200
C1240       C  0.39464270  0.11085191  0.70882677    -0.19800
C1241       C  0.40579859  0.12781280  0.72999310     0.19400
C1242       C  0.39565967  0.12579696  0.75786320     0.01600
C1243       C  0.40787949  0.14329278  0.77847896    -0.14500
C1244       C  0.42935648  0.16183489  0.77167342    -0.12200
C1245       C  0.43945402  0.16351391  0.74423500     0.01100
C1246       C  0.42738479  0.14653799  0.72347377    -0.24400
H1247       H  0.33630737  0.07908443  0.81798164     0.09100
H1248       H  0.36909222  0.11533974  0.80864916     0.12700
H1249       H  0.33674471  0.05373269  0.73154548     0.11400
H1250       H  0.36611279  0.07819177  0.69811614     0.12600
H1251       H  0.40225538  0.11240292  0.68750482     0.11600
H1252       H  0.40162093  0.14297610  0.80011682     0.08700
H1253       H  0.43838943  0.17459990  0.78811218     0.12000
H1254       H  0.43489856  0.14775917  0.70208584     0.13800
C1255       C  0.33367482  0.93431891  0.77792992    -0.01700
C1256       C  0.33805804  0.92820509  0.74959692    -0.09700
C1257       C  0.35653332  0.90706369  0.74149453    -0.18500
C1258       C  0.37132736  0.89111041  0.76161610     0.03900
C1259       C  0.36619845  0.89678901  0.79036621     0.18000
C1260       C  0.34755849  0.91816921  0.79821664    -0.20000
C1261       C  0.38014788  0.88149139  0.81111518    -0.21200
C1262       C  0.39987255  0.86127767  0.80393851    -0.19800
C1263       C  0.40613753  0.85579341  0.77581969     0.19400
C1264       C  0.39151991  0.87027199  0.75426205     0.01600
C1265       C  0.39821843  0.86372189  0.72623193    -0.14500
C1266       C  0.41944708  0.84482119  0.71988650    -0.12200
C1267       C  0.43480978  0.83147955  0.74106949     0.01100
C1268       C  0.42745699  0.83647078  0.76909132    -0.24400
H1269       H  0.32766856  0.94028919  0.73349297     0.09100
H1270       H  0.35904509  0.90408874  0.71930352     0.12700
H1271       H  0.34415345  0.92247327  0.82025735     0.11400
H1272       H  0.37614488  0.88554257  0.83309446     0.12600
H1273       H  0.41066413  0.85021103  0.82051941     0.11600
H1274       H  0.38780673  0.87313913  0.70864207     0.08700
H1275       H  0.42411565  0.84099043  0.69800646     0.12000
H1276       H  0.43896511  0.82613042  0.78567336     0.13800
C1277       C  0.06506363  0.87465113  0.74772894    -0.01700
C1278       C  0.08207412  0.88156045  0.72480579    -0.09700
C1279       C  0.10796152  0.89484903  0.72883521    -0.18500
C1280       C  0.11779503  0.90124398  0.75609820     0.03900
C1281       C  0.10012301  0.89450738  0.77909509     0.18000
C1282       C  0.07409414  0.88188217  0.77470067    -0.20000
C1283       C  0.10867851  0.89975912  0.80659212    -0.21200
C1284       C  0.13453671  0.91168141  0.81191736    -0.19800
C1285       C  0.15225146  0.91906250  0.78985090     0.19400
C1286       C  0.14437582  0.91401661  0.76158072     0.01600
C1287       C  0.16328956  0.92245936  0.74029188    -0.14500
C1288       C  0.18806444  0.93688551  0.74691665    -0.12200
C1289       C  0.19477765  0.94282052  0.77485331     0.01100
C1290       C  0.17736841  0.93260354  0.79610294    -0.24400
H1291       H  0.07573305  0.87602311  0.70372625     0.09100
H1292       H  0.12007782  0.89927716  0.71033134     0.12700
H1293       H  0.06130978  0.87661419  0.79269746     0.11400
H1294       H  0.09531072  0.89449146  0.82415198     0.12600
H1295       H  0.14052434  0.91560086  0.83348431     0.11600
H1296       H  0.15897712  0.91914846  0.71837467     0.08700
H1297       H  0.20117474  0.94463922  0.73014034     0.12000
H1298       H  0.18260754  0.93667393  0.81785949     0.13800
C1299       C  0.73671297  0.56235419  0.84026731    -0.01700
C1300       C  0.76499072  0.56997534  0.84223991    -0.09700
C1301       C  0.77355851  0.59065020  0.86105259    -0.18500
C1302       C  0.75393243  0.60446104  0.87848179     0.03900
C1303       C  0.72513049  0.59754369  0.87530162     0.18000
C1304       C  0.71687893  0.57663986  0.85649785    -0.20000
C1305       C  0.70467759  0.61117909  0.89123671    -0.21200
C1306       C  0.71224459  0.63112591  0.91093864    -0.19800
C1307       C  0.74046918  0.63761817  0.91546536     0.19400
C1308       C  0.76176636  0.62451031  0.89923570     0.01600
C1309       C  0.78996058  0.63145896  0.90510730    -0.14500
C1310       C  0.79666888  0.65008813  0.92657487    -0.12200
C1311       C  0.77560107  0.66267675  0.94274873     0.01100
C1312       C  0.74750939  0.65667423  0.93668618    -0.24400
H1313       H  0.78068414  0.55947100  0.82966114     0.09100
H1314       H  0.79567795  0.59519938  0.86156839     0.12700
H1315       H  0.69484916  0.57132001  0.85468407     0.11400
H1316       H  0.68266778  0.60616363  0.88865919     0.12600
H1317       H  0.69591621  0.64111362  0.92316224     0.11600
H1318       H  0.80736187  0.62242150  0.89391574     0.08700
H1319       H  0.81858064  0.65447265  0.93064211     0.12000
H1320       H  0.73102562  0.66621839  0.94907125     0.13800
C1321       C  0.77202220  0.66340518  0.07150754    -0.01700
C1322       C  0.74738734  0.66812081  0.08673007    -0.09700
C1323       C  0.74007892  0.65076674  0.10893393    -0.18500
C1324       C  0.75721747  0.62788494  0.11647785     0.03900
C1325       C  0.78261549  0.62377381  0.10149206     0.18000
C1326       C  0.78973191  0.64143278  0.07934693    -0.20000
C1327       C  0.80057084  0.60172305  0.10827312    -0.21200
C1328       C  0.79337384  0.58292608  0.12908741    -0.19800
C1329       C  0.76796821  0.58566058  0.14340585     0.19400
C1330       C  0.74968340  0.60842112  0.13767082     0.01600
C1331       C  0.72410997  0.60998223  0.15255514    -0.14500
C1332       C  0.71625106  0.58882114  0.17084062    -0.12200
C1333       C  0.73390464  0.56600308  0.17545457     0.01100
C1334       C  0.76015829  0.56501840  0.16256181    -0.24400
H1335       H  0.73357464  0.68527041  0.08143917     0.09100
H1336       H  0.72080922  0.65571101  0.11953613     0.12700
H1337       H  0.80903870  0.63774928  0.06795802     0.11400
H1338       H  0.82007570  0.59868204  0.09703724     0.12600
H1339       H  0.80741079  0.56569334  0.13346918     0.11600
H1340       H  0.70930067  0.62669962  0.14988622     0.08700
H1341       H  0.69602031  0.59005705  0.18109840     0.12000
H1342       H  0.77380548  0.54727969  0.16615813     0.13800
C1343       C  0.94275292  0.75611436  0.81074908    -0.01700
C1344       C  0.92108068  0.77444833  0.81776462    -0.09700
C1345       C  0.90551470  0.77062072  0.84199279    -0.18500
C1346       C  0.91158520  0.74843589  0.86040628     0.03900
C1347       C  0.93126449  0.72793837  0.85162977     0.18000
C1348       C  0.94690079  0.73200608  0.82686597    -0.20000
C1349       C  0.93598116  0.70438758  0.86835213    -0.21200
C1350       C  0.92211167  0.70126921  0.89392110    -0.19800
C1351       C  0.90422527  0.72224799  0.90397890     0.19400
C1352       C  0.89920821  0.74634566  0.88744181     0.01600
C1353       C  0.88309120  0.76810647  0.89913133    -0.14500
C1354       C  0.87140504  0.76563565  0.92559847    -0.12200
C1355       C  0.87496319  0.74132838  0.94147954     0.01100
C1356       C  0.89159403  0.71963836  0.93057771    -0.24400
H1357       H  0.91726357  0.79287131  0.80520329     0.09100
H1358       H  0.88928941  0.78576010  0.84603482     0.12700
H1359       H  0.96361958  0.71766744  0.82137556     0.11400
H1360       H  0.95061643  0.68838808  0.86171002     0.12600
H1361       H  0.92613888  0.68280046  0.90632680     0.11600
H1362       H  0.87960000  0.78766805  0.88861368     0.08700
H1363       H  0.85885685  0.78284739  0.93332768     0.12000
H1364       H  0.89475327  0.70083387  0.94274078     0.13800
C1365       C  0.74355946  0.92700544  0.87997653    -0.01700
C1366       C  0.72164099  0.91730886  0.89687339    -0.09700
C1367       C  0.72314858  0.89091682  0.90932611    -0.18500
C1368       C  0.74666479  0.87335408  0.90497258     0.03900
C1369       C  0.76857952  0.88336573  0.88753695     0.18000
C1370       C  0.76685662  0.90976885  0.87544868    -0.20000
C1371       C  0.79237196  0.86713534  0.88232234    -0.21200
C1372       C  0.79555461  0.84143587  0.89504442    -0.19800
C1373       C  0.77494167  0.83135560  0.91313513     0.19400
C1374       C  0.74978046  0.84664838  0.91782406     0.01600
C1375       C  0.72951649  0.83493285  0.93601412    -0.14500
C1376       C  0.73527179  0.81043701  0.95084020    -0.12200
C1377       C  0.76111010  0.79704329  0.94764330     0.01100
C1378       C  0.78022132  0.80680111  0.92788357    -0.24400
H1379       H  0.70325871  0.93010437  0.90043159     0.09100
H1380       H  0.70568033  0.88488235  0.92227447     0.12700
H1381       H  0.78380373  0.91673842  0.86203332     0.11400
H1382       H  0.80896297  0.87465393  0.86878319     0.12600
H1383       H  0.81462052  0.82969050  0.89128307     0.11600
H1384       H  0.70964098  0.84482880  0.94012140     0.08700
H1385       H  0.72040561  0.80314196  0.96632977     0.12000
H1386       H  0.80025764  0.79628744  0.92555836     0.13800
C1387       C  0.06526520  0.77214415  0.34426388    -0.01700
C1388       C  0.07331225  0.74409862  0.34546341    -0.09700
C1389       C  0.09438652  0.73540453  0.36365421    -0.18500
C1390       C  0.10830599  0.75460149  0.38136304     0.03900
C1391       C  0.10095216  0.78325588  0.37922947     0.18000
C1392       C  0.07948536  0.79171013  0.36094804    -0.20000
C1393       C  0.11480885  0.80321902  0.39561312    -0.21200
C1394       C  0.13532832  0.79523102  0.41469479    -0.19800
C1395       C  0.14219101  0.76705378  0.41812848     0.19400
C1396       C  0.12889226  0.74633848  0.40138727     0.01600
C1397       C  0.13617080  0.71815226  0.40600485    -0.14500
C1398       C  0.15517184  0.71079571  0.42682878    -0.12200
C1399       C  0.16788086  0.73117679  0.44360529     0.01100
C1400       C  0.16173425  0.75936165  0.43875277    -0.24400
H1401       H  0.06288523  0.72859794  0.33262119     0.09100
H1402       H  0.09916845  0.71340767  0.36335860     0.12700
H1403       H  0.07378042  0.81358852  0.35979144     0.11400
H1404       H  0.10953447  0.82514528  0.39386156     0.12600
H1405       H  0.14546196  0.81114849  0.42728719     0.11600
H1406       H  0.12708796  0.70110602  0.39433087     0.08700
H1407       H  0.15974499  0.68888633  0.42994661     0.12000
H1408       H  0.17142237  0.77530740  0.45168645     0.13800
C1409       C  0.93708032  0.77220645  0.34341913    -0.01700
C1410       C  0.91837828  0.79210119  0.35400670    -0.09700
C1411       C  0.89705999  0.78440555  0.37228959    -0.18500
C1412       C  0.89398542  0.75639644  0.38093613     0.03900
C1413       C  0.91277094  0.73619680  0.36974540     0.18000
C1414       C  0.93382044  0.74418316  0.35091047    -0.20000
C1415       C  0.91089371  0.70826891  0.37794267    -0.21200
C1416       C  0.89115665  0.70002833  0.39762296    -0.19800
C1417       C  0.87266840  0.71948035  0.40934352     0.19400
C1418       C  0.87345088  0.74785266  0.40081176     0.01600
C1419       C  0.85395381  0.76652690  0.41293076    -0.14500
C1420       C  0.83522356  0.75760273  0.43337871    -0.12200
C1421       C  0.83516935  0.72984100  0.44243005     0.01100
C1422       C  0.85367599  0.71078282  0.42994572    -0.24400
H1423       H  0.92029421  0.81386181  0.34823295     0.09100
H1424       H  0.88375317  0.80100094  0.37962366     0.12700
H1425       H  0.94829320  0.72868322  0.34283261     0.11400
H1426       H  0.92511867  0.69277793  0.36945046     0.12600
H1427       H  0.89053710  0.67833367  0.40393156     0.11600
H1428       H  0.85271761  0.78820521  0.40731026     0.08700
H1429       H  0.82101437  0.77275097  0.44246708     0.12000
H1430       H  0.85365045  0.68916230  0.43655524     0.13800
C1431       C  0.87156001  0.73849854  0.07961309    -0.01700
C1432       C  0.88736983  0.71676793  0.09117016    -0.09700
C1433       C  0.90003887  0.71984113  0.11747962    -0.18500
C1434       C  0.89688710  0.74476115  0.13319499     0.03900
C1435       C  0.88006819  0.76632937  0.12157990     0.18000
C1436       C  0.86779246  0.76304821  0.09516267    -0.20000
C1437       C  0.87581568  0.79130458  0.13617024    -0.21200
C1438       C  0.88908100  0.79599891  0.16157587    -0.19800
C1439       C  0.90678742  0.77576854  0.17301659     0.19400
C1440       C  0.91036865  0.74950086  0.15954541     0.01600
C1441       C  0.92812777  0.72968826  0.17258977    -0.14500
C1442       C  0.94340626  0.73661960  0.19666803    -0.12200
C1443       C  0.94128267  0.76330805  0.20832236     0.01100
C1444       C  0.92211330  0.78231508  0.19713351    -0.24400
H1445       H  0.89015996  0.69743270  0.07972961     0.09100
H1446       H  0.91226973  0.70244678  0.12487115     0.12700
H1447       H  0.85490246  0.77971756  0.08677972     0.11400
H1448       H  0.86267355  0.80762242  0.12753175     0.12600
H1449       H  0.88606638  0.81589952  0.17197710     0.11600
H1450       H  0.93147194  0.70911761  0.16409674     0.08700
H1451       H  0.95831487  0.72175260  0.20504076     0.12000
H1452       H  0.92041530  0.80296890  0.20632895     0.13800
C1453       C  0.83877507  0.27012253  0.44400302    -0.01700
C1454       C  0.84174385  0.24197770  0.43677712    -0.09700
C1455       C  0.86088044  0.23369865  0.41626800    -0.18500
C1456       C  0.87772360  0.25345689  0.40207867     0.03900
C1457       C  0.87483998  0.28197887  0.40963208     0.18000
C1458       C  0.85550197  0.29000386  0.43029952    -0.20000
C1459       C  0.89139175  0.30232522  0.39665588    -0.21200
C1460       C  0.91105499  0.29490784  0.37646670    -0.19800
C1461       C  0.91444776  0.26699460  0.36853691     0.19400
C1462       C  0.89754470  0.24591783  0.38096347     0.01600
C1463       C  0.90126869  0.21816523  0.37176182    -0.14500
C1464       C  0.92165835  0.21146686  0.35204050    -0.12200
C1465       C  0.93906328  0.23206457  0.34060368     0.01100
C1466       C  0.93493378  0.25994364  0.34852634    -0.24400
H1467       H  0.82939747  0.22615695  0.44721859     0.09100
H1468       H  0.86211575  0.21163205  0.41224574     0.12700
H1469       H  0.85352482  0.31189303  0.43571596     0.11400
H1470       H  0.88928640  0.32412592  0.40234322     0.12600
H1471       H  0.92375025  0.31111303  0.36705100     0.11600
H1472       H  0.88889051  0.20105398  0.37945337     0.08700
H1473       H  0.92398529  0.18979566  0.34598788     0.12000
H1474       H  0.94814947  0.27608482  0.33971655     0.13800
C1475       C  0.06682264  0.23290004  0.34262840    -0.01700
C1476       C  0.07956986  0.25919303  0.34102686    -0.09700
C1477       C  0.10077700  0.26682774  0.35978583    -0.18500
C1478       C  0.11009982  0.24824154  0.38083404     0.03900
C1479       C  0.09811344  0.22112463  0.38145053     0.18000
C1480       C  0.07659242  0.21385112  0.36269708    -0.20000
C1481       C  0.10753550  0.20142668  0.40091138    -0.21200
C1482       C  0.12846349  0.20815397  0.42006426    -0.19800
C1483       C  0.13997811  0.23498735  0.42076394     0.19400
C1484       C  0.13073875  0.25554846  0.40135087     0.01600
C1485       C  0.14189504  0.28274708  0.40394334    -0.14500
C1486       C  0.16111476  0.28924620  0.42503747    -0.12200
C1487       C  0.17043705  0.26884120  0.44383862     0.01100
C1488       C  0.16012300  0.24161078  0.44131076    -0.24400
H1489       H  0.07289299  0.27415008  0.32541531     0.09100
H1490       H  0.10955975  0.28735861  0.35717684     0.12700
H1491       H  0.06742787  0.19319007  0.36378748     0.11400
H1492       H  0.09863950  0.18063204  0.40133544     0.12600
H1493       H  0.13525922  0.19241431  0.43484799     0.11600
H1494       H  0.13556796  0.29966630  0.39053935     0.08700
H1495       H  0.16873180  0.31048112  0.42670892     0.12000
H1496       H  0.16686868  0.22587012  0.45613608     0.13800
C1497       C  0.87927180  0.26524141  0.07381056    -0.01700
C1498       C  0.89340311  0.28779992  0.08598917    -0.09700
C1499       C  0.90594422  0.28504913  0.11237758    -0.18500
C1500       C  0.90423870  0.25970074  0.12749103     0.03900
C1501       C  0.88905877  0.23730329  0.11514337     0.18000
C1502       C  0.87700770  0.24024379  0.08869659    -0.20000
C1503       C  0.88614776  0.21184881  0.12904516    -0.21200
C1504       C  0.89921006  0.20753611  0.15454728    -0.19800
C1505       C  0.91529532  0.22865161  0.16677984     0.19400
C1506       C  0.91751225  0.25533339  0.15396705     0.01600
C1507       C  0.93374888  0.27591958  0.16782127    -0.14500
C1508       C  0.94878493  0.26955446  0.19219251    -0.12200
C1509       C  0.94779572  0.24264490  0.20333791     0.01100
C1510       C  0.93030718  0.22268071  0.19114635    -0.24400
H1511       H  0.89486037  0.30748402  0.07502953     0.09100
H1512       H  0.91692142  0.30316584  0.12043463     0.12700
H1513       H  0.86526512  0.22292546  0.07981500     0.11400
H1514       H  0.87421338  0.19490145  0.11980485     0.12600
H1515       H  0.89728894  0.18729159  0.16444842     0.11600
H1516       H  0.93605982  0.29689607  0.15971579     0.08700
H1517       H  0.96250524  0.28508616  0.20132102     0.12000
H1518       H  0.92965612  0.20177877  0.19990245     0.13800
C1519       C  0.83394890  0.27520221  0.57178573    -0.01700
C1520       C  0.84897513  0.29639244  0.58546545    -0.09700
C1521       C  0.86801675  0.29016400  0.60674392    -0.18500
C1522       C  0.87298161  0.26228360  0.61491888     0.03900
C1523       C  0.85681088  0.24097196  0.60183292     0.18000
C1524       C  0.83738665  0.24759522  0.58071583    -0.20000
C1525       C  0.86076100  0.21303382  0.60922984    -0.21200
C1526       C  0.88130173  0.20561518  0.62846453    -0.19800
C1527       C  0.89831811  0.22596168  0.64087302     0.19400
C1528       C  0.89400207  0.25466733  0.63486208     0.01600
C1529       C  0.91147443  0.27434590  0.64849454    -0.14500
C1530       C  0.93299011  0.26575258  0.66639651    -0.12200
C1531       C  0.93788807  0.23736192  0.67128612     0.01100
C1532       C  0.92006785  0.21763903  0.65882445    -0.24400
H1533       H  0.84635829  0.31800590  0.57941540     0.09100
H1534       H  0.87894968  0.30759063  0.61589120     0.12700
H1535       H  0.82574054  0.23104609  0.57047686     0.11400
H1536       H  0.84834135  0.19671762  0.59955336     0.12600
H1537       H  0.88427484  0.18372120  0.63324680     0.11600
H1538       H  0.90932325  0.29649849  0.64551267     0.08700
H1539       H  0.94623548  0.28144951  0.67598707     0.12000
H1540       H  0.92327982  0.19562061  0.66288373     0.13800
C1541       C  0.17225166  0.26889627  0.57195320    -0.01700
C1542       C  0.16567337  0.24068418  0.57543207    -0.09700
C1543       C  0.14664729  0.23227640  0.59589025    -0.18500
C1544       C  0.13353185  0.25196689  0.61370053     0.03900
C1545       C  0.14149885  0.28041336  0.61113852     0.18000
C1546       C  0.16057003  0.28860040  0.59032956    -0.20000
C1547       C  0.12987352  0.30060315  0.62889938    -0.21200
C1548       C  0.10960893  0.29331955  0.64848173    -0.19800
C1549       C  0.10027129  0.26572729  0.65055979     0.19400
C1550       C  0.11234185  0.24457840  0.63343978     0.01600
C1551       C  0.10199616  0.21710826  0.63616310    -0.14500
C1552       C  0.08004361  0.21109082  0.65438306    -0.12200
C1553       C  0.06774916  0.23205755  0.67078335     0.01100
C1554       C  0.07839484  0.25927690  0.66916586    -0.24400
H1555       H  0.17463919  0.22503427  0.56169749     0.09100
H1556       H  0.14243739  0.21023352  0.59694075     0.12700
H1557       H  0.16601615  0.31045652  0.58817283     0.11400
H1558       H  0.13615055  0.32227213  0.62731032     0.12600
H1559       H  0.10068404  0.30950687  0.66161471     0.11600
H1560       H  0.10997038  0.19983109  0.62411053     0.08700
H1561       H  0.07254937  0.18978945  0.65545520     0.12000
H1562       H  0.06914249  0.27566892  0.68182365     0.13800
C1563       C  0.80556912  0.05794748  0.77179791    -0.01700
C1564       C  0.81750915  0.05606367  0.74505631    -0.09700
C1565       C  0.84113895  0.07208552  0.73811559    -0.18500
C1566       C  0.85350577  0.09044167  0.75790474     0.03900
C1567       C  0.83995337  0.09348632  0.78427018     0.18000
C1568       C  0.81634415  0.07745525  0.79082705    -0.20000
C1569       C  0.85062794  0.11169484  0.80453768    -0.21200
C1570       C  0.87515874  0.12635052  0.79965910    -0.19800
C1571       C  0.88977533  0.12294890  0.77450724     0.19400
C1572       C  0.87912743  0.10529881  0.75301761     0.01600
C1573       C  0.89503932  0.10287214  0.72805686    -0.14500
C1574       C  0.92059551  0.11706383  0.72488783    -0.12200
C1575       C  0.93115683  0.13389772  0.74650881     0.01100
C1576       C  0.91530332  0.13691146  0.77105645    -0.24400
H1577       H  0.80957063  0.04104425  0.73004156     0.09100
H1578       H  0.84976806  0.06907229  0.71745536     0.12700
H1579       H  0.80702503  0.07923539  0.81149040     0.11400
H1580       H  0.84021052  0.11421924  0.82456178     0.12600
H1581       H  0.88309846  0.14000346  0.81597368     0.11600
H1582       H  0.88837986  0.08997078  0.71075741     0.08700
H1583       H  0.93223228  0.11464847  0.70556321     0.12000
H1584       H  0.92282503  0.15036573  0.78775098     0.13800
C1585       C  0.06954311  0.13227518  0.74603759    -0.01700
C1586       C  0.07930494  0.11410273  0.72518228    -0.09700
C1587       C  0.10557727  0.10109151  0.72775936    -0.18500
C1588       C  0.12315613  0.10634675  0.75116348     0.03900
C1589       C  0.11321766  0.12525292  0.77188217     0.18000
C1590       C  0.08676126  0.13767804  0.76925562    -0.20000
C1591       C  0.12963329  0.13166919  0.79531530    -0.21200
C1592       C  0.15535158  0.11880276  0.79935727    -0.19800
C1593       C  0.16528263  0.09917348  0.78007135     0.19400
C1594       C  0.14983484  0.09314590  0.75527101     0.01600
C1595       C  0.16142323  0.07348519  0.73632493    -0.14500
C1596       C  0.18590363  0.05868369  0.74303198    -0.12200
C1597       C  0.19954765  0.06315609  0.76864326     0.01100
C1598       C  0.18986617  0.08441381  0.78633635    -0.24400
H1599       H  0.06654904  0.10984500  0.70689081     0.09100
H1600       H  0.11157790  0.08706475  0.71114170     0.12700
H1601       H  0.07978381  0.15220754  0.78524415     0.11400
H1602       H  0.12225510  0.14633377  0.81095643     0.12600
H1603       H  0.16720360  0.12367766  0.81812570     0.11600
H1604       H  0.15141980  0.06829364  0.71675146     0.08700
H1605       H  0.19301310  0.04233389  0.72903473     0.12000
H1606       H  0.20053654  0.08821093  0.80606284     0.13800
C1607       C  0.87360913  0.26231486  0.93447326    -0.01700
C1608       C  0.86642241  0.24010479  0.91672006    -0.09700
C1609       C  0.87703017  0.23831588  0.88973106    -0.18500
C1610       C  0.89576343  0.25859638  0.87943817     0.03900
C1611       C  0.90338325  0.28103476  0.89745588     0.18000
C1612       C  0.89181918  0.28304030  0.92456342    -0.20000
C1613       C  0.92308688  0.30077447  0.88854041    -0.21200
C1614       C  0.93651497  0.29777886  0.86278438    -0.19800
C1615       C  0.92993119  0.27544451  0.84499191     0.19400
C1616       C  0.90840945  0.25637755  0.85250862     0.01600
C1617       C  0.90140283  0.23502017  0.83327553    -0.14500
C1618       C  0.91771887  0.23036023  0.80963357    -0.12200
C1619       C  0.94077785  0.24733303  0.80393750     0.01100
C1620       C  0.94586758  0.27086574  0.82061284    -0.24400
H1621       H  0.85207614  0.22398511  0.92356700     0.09100
H1622       H  0.87066490  0.22032180  0.87778411     0.12700
H1623       H  0.89746547  0.30032075  0.93811492     0.11400
H1624       H  0.92895270  0.31801885  0.90202939     0.12600
H1625       H  0.95262797  0.31264512  0.85704468     0.11600
H1626       H  0.88418087  0.22084226  0.83642533     0.08700
H1627       H  0.91336901  0.21230802  0.79661977     0.12000
H1628       H  0.96380941  0.28401568  0.81611072     0.13800
C1629       C  0.26711943  0.56594727  0.17403788    -0.01700
C1630       C  0.23894160  0.56928339  0.16673525    -0.09700
C1631       C  0.23093547  0.58953569  0.14735406    -0.18500
C1632       C  0.25102996  0.60719893  0.13461678     0.03900
C1633       C  0.27934358  0.60490196  0.14345550     0.18000
C1634       C  0.28711082  0.58434837  0.16284278    -0.20000
C1635       C  0.29982233  0.62274400  0.13248138    -0.21200
C1636       C  0.29288806  0.64241932  0.11223746    -0.29400
C1637       C  0.26542005  0.64436766  0.10209732     0.19400
C1638       C  0.24412294  0.62675620  0.11320544     0.01600
C1639       C  0.21694659  0.62885670  0.10182168    -0.14500
C1640       C  0.21111358  0.64754471  0.08042738    -0.12200
C1641       C  0.23198731  0.66502864  0.06943990     0.01100
C1642       C  0.25916698  0.66345192  0.08055745    -0.24400
H1643       H  0.22308501  0.55562047  0.17537542     0.09100
H1644       H  0.20887605  0.59064944  0.14269151     0.12700
H1645       H  0.30894286  0.58239725  0.16889854     0.11400
H1646       H  0.32141517  0.62129478  0.13941846     0.12600
H1647       H  0.30924515  0.65578589  0.10403017     0.11600
H1648       H  0.19974265  0.61599728  0.10856808     0.08700
H1649       H  0.18988154  0.64807649  0.07237448     0.12000
H1650       H  0.27552033  0.67676632  0.07224629     0.13800
C1651       C  0.23003356  0.66830465  0.94125168    -0.01700
C1652       C  0.20890869  0.65691348  0.92432374    -0.09700
C1653       C  0.21537847  0.63795885  0.90305561    -0.18500
C1654       C  0.24333894  0.62930903  0.89842036     0.03900
C1655       C  0.26468422  0.64111755  0.91561579     0.18000
C1656       C  0.25793995  0.66076385  0.93637873    -0.20000
C1657       C  0.29256781  0.63262957  0.91262064    -0.21200
C1658       C  0.29969363  0.61206309  0.89341873    -0.19800
C1659       C  0.27918315  0.59984670  0.87640429     0.19400
C1660       C  0.25081150  0.60870620  0.87807355     0.01600
C1661       C  0.23120706  0.59618556  0.85961794    -0.14500
C1662       C  0.23928363  0.57480606  0.84132908    -0.12200
C1663       C  0.26705007  0.56527519  0.84084036     0.01100
C1664       C  0.28693756  0.57839722  0.85804861    -0.24400
H1665       H  0.18716130  0.66256995  0.92766466     0.09100
H1666       H  0.19798041  0.62991465  0.89116098     0.12700
H1667       H  0.27433857  0.66927884  0.94960953     0.11400
H1668       H  0.30890305  0.64150719  0.92567334     0.12600
H1669       H  0.32139443  0.60548201  0.89204696     0.11600
H1670       H  0.20950008  0.60230931  0.85892761     0.08700
H1671       H  0.22358019  0.56534696  0.82794093     0.12000
H1672       H  0.30863584  0.57166495  0.85748820     0.13800
C1673       C  0.12672784  0.74517180  0.94316902    -0.01700
C1674       C  0.12436010  0.77216546  0.93220238    -0.09700
C1675       C  0.11391492  0.77652883  0.90540412    -0.18500
C1676       C  0.10514152  0.75392902  0.88855926     0.03900
C1677       C  0.10567169  0.72675087  0.90031439     0.18000
C1678       C  0.11689302  0.72251430  0.92724498    -0.20000
C1679       C  0.09496341  0.70411120  0.88507408    -0.21200
C1680       C  0.08276125  0.70816231  0.85884123    -0.19800
C1681       C  0.08216914  0.73472848  0.84670695     0.19400
C1682       C  0.09478832  0.75762526  0.86086322     0.01600
C1683       C  0.09618908  0.78343628  0.84685089    -0.14500
C1684       C  0.08217080  0.78737455  0.82168507    -0.12200
C1685       C  0.06632908  0.76581926  0.80965588     0.01100
C1686       C  0.06787931  0.73900447  0.82122565    -0.24400
H1687       H  0.13161713  0.79012138  0.94395877     0.09100
H1688       H  0.11264102  0.79791956  0.89860089     0.12700
H1689       H  0.11836250  0.70155183  0.93559657     0.11400
H1690       H  0.09525862  0.68328750  0.89385369     0.12600
H1691       H  0.07359875  0.69045837  0.84805969     0.11600
H1692       H  0.10743586  0.80114782  0.85511370     0.08700
H1693       H  0.08214036  0.80805683  0.81254647     0.12000
H1694       H  0.05611788  0.72208239  0.81175754     0.13800
C1695       C  0.13525528  0.74010073  0.08135539    -0.01700
C1696       C  0.11604794  0.71988047  0.09018400    -0.09700
C1697       C  0.10313484  0.72208813  0.11647748    -0.18500
C1698       C  0.10924136  0.74467606  0.13473389     0.03900
C1699       C  0.12961819  0.76439325  0.12593447     0.18000
C1700       C  0.14236362  0.76184225  0.09972988    -0.20000
C1701       C  0.13665729  0.78715488  0.14291361    -0.21200
C1702       C  0.12255901  0.79187456  0.16783463    -0.19800
C1703       C  0.10139439  0.77370603  0.17650444     0.19400
C1704       C  0.09513690  0.74921530  0.16077142     0.01600
C1705       C  0.07420401  0.73112353  0.17127279    -0.14500
C1706       C  0.05851526  0.73840533  0.19494168    -0.12200
C1707       C  0.06323728  0.76380390  0.20866335     0.01100
C1708       C  0.08542786  0.78075895  0.20007104    -0.24400
H1709       H  0.11059075  0.70262814  0.07654832     0.09100
H1710       H  0.08809251  0.70617243  0.12167686     0.12700
H1711       H  0.15779672  0.77723230  0.09349569     0.11400
H1712       H  0.15250078  0.80199313  0.13638706     0.12600
H1713       H  0.12767585  0.81030225  0.17998958     0.11600
H1714       H  0.06883186  0.71177058  0.16111604     0.08700
H1715       H  0.04139345  0.72502547  0.20137159     0.12000
H1716       H  0.08927226  0.80029696  0.21090947     0.13800
C1717       C  0.23709085  0.80420160  0.94637992    -0.01700
C1718       C  0.26466559  0.81418068  0.94546669    -0.09700
C1719       C  0.27089881  0.83907498  0.93138428    -0.18500
C1720       C  0.24945706  0.85487174  0.91828620     0.03900
C1721       C  0.22195058  0.84345788  0.91789744     0.18000
C1722       C  0.21629514  0.81818680  0.93117218    -0.20000
C1723       C  0.19973063  0.85794878  0.90557667    -0.21200
C1724       C  0.20397843  0.88410095  0.89420471    -0.19800
C1725       C  0.23059332  0.89625232  0.89465924     0.19400
C1726       C  0.25389619  0.88183289  0.90629095     0.01600
C1727       C  0.28033493  0.89527853  0.90563137    -0.14500
C1728       C  0.28339936  0.92173834  0.89356100    -0.12200
C1729       C  0.26020157  0.93568943  0.88216469     0.01100
C1730       C  0.23388109  0.92278824  0.88318166    -0.24400
H1731       H  0.28107166  0.80375172  0.95713376     0.09100
H1732       H  0.29236796  0.84606699  0.93218641     0.12700
H1733       H  0.19492781  0.81038980  0.93142221     0.11400
H1734       H  0.17874491  0.84925992  0.90530138     0.12600
H1735       H  0.18623864  0.89498947  0.88513332     0.11600
H1736       H  0.29903718  0.88571413  0.91391662     0.08700
H1737       H  0.30406452  0.93105820  0.89271999     0.12000
H1738       H  0.21574318  0.93306382  0.87415562     0.13800
C1739       C  0.23078794  0.33663245  0.94573129    -0.01700
C1740       C  0.20945665  0.34890035  0.92979920    -0.09700
C1741       C  0.21577337  0.36767480  0.90858577    -0.18500
C1742       C  0.24383625  0.37506033  0.90281562     0.03900
C1743       C  0.26543879  0.36226191  0.91888288     0.18000
C1744       C  0.25876583  0.34306456  0.93992061    -0.20000
C1745       C  0.29354458  0.36905944  0.91422458    -0.21200
C1746       C  0.30069600  0.38878737  0.89427642    -0.19800
C1747       C  0.27989556  0.40207117  0.87851086     0.19400
C1748       C  0.25118992  0.39513298  0.88215955     0.01600
C1749       C  0.23111288  0.40897000  0.86530267    -0.14500
C1750       C  0.23919498  0.42962152  0.84646625    -0.12200
C1751       C  0.26741102  0.43705644  0.84382251     0.01100
C1752       C  0.28767923  0.42273718  0.85946801    -0.24400
H1753       H  0.18764112  0.34397055  0.93375170     0.09100
H1754       H  0.19818029  0.37625981  0.89743625     0.12700
H1755       H  0.27534350  0.33370690  0.95230321     0.11400
H1756       H  0.31007917  0.35934608  0.92636393     0.12600
H1757       H  0.32262971  0.39394852  0.89140681     0.11600
H1758       H  0.20901685  0.40461517  0.86633589     0.08700
H1759       H  0.22319056  0.44019914  0.83437205     0.12000
H1760       H  0.30967586  0.42795668  0.85716478     0.13800
C1761       C  0.27148787  0.43770646  0.17272340    -0.01700
C1762       C  0.29230302  0.42549423  0.15602548    -0.09700
C1763       C  0.28583363  0.40411293  0.13734225    -0.18500
C1764       C  0.25803356  0.39432233  0.13444435     0.03900
C1765       C  0.23703318  0.40635760  0.15182474     0.18000
C1766       C  0.24395004  0.42763837  0.17090286    -0.20000
C1767       C  0.20914712  0.39753389  0.14960266    -0.21200
C1768       C  0.20146158  0.37764663  0.12979434    -0.19800
C1769       C  0.22152911  0.36591910  0.11191635     0.19400
C1770       C  0.25022075  0.37359204  0.11442074     0.01600
C1771       C  0.26977109  0.36056108  0.09637945    -0.14500
C1772       C  0.26105283  0.34156709  0.07606283    -0.12200
C1773       C  0.23265773  0.33496115  0.07288148     0.01100
C1774       C  0.21301023  0.34690208  0.09116714    -0.24400
H1775       H  0.31383754  0.43258788  0.15726496     0.09100
H1776       H  0.30303116  0.39611589  0.12516892     0.12700
H1777       H  0.22768692  0.43691244  0.18376145     0.11400
H1778       H  0.19306260  0.40648363  0.16289597     0.12600
H1779       H  0.17960719  0.37166072  0.12820651     0.11600
H1780       H  0.29191453  0.36471407  0.09718105     0.08700
H1781       H  0.27664966  0.33255104  0.06225197     0.12000
H1782       H  0.19101568  0.34156361  0.08910443     0.13800
C1783       C  0.13243279  0.25654817  0.07668086    -0.01700
C1784       C  0.13684370  0.23192558  0.09179404    -0.09700
C1785       C  0.12673294  0.22906856  0.11881838    -0.18500
C1786       C  0.11133945  0.25069524  0.13165966     0.03900
C1787       C  0.10576578  0.27522748  0.11595158     0.18000
C1788       C  0.11693595  0.27825949  0.08889971    -0.20000
C1789       C  0.08854591  0.29613578  0.12714671    -0.21200
C1790       C  0.07546066  0.29236323  0.15294722    -0.19800
C1791       C  0.08046522  0.26823748  0.16868313     0.19400
C1792       C  0.09987268  0.24795894  0.15893469     0.01600
C1793       C  0.10626018  0.22519994  0.17650997    -0.14500
C1794       C  0.09081242  0.22042930  0.20062770    -0.12200
C1795       C  0.06904927  0.23846822  0.20823258     0.01100
C1796       C  0.06512637  0.26332056  0.19330076    -0.24400
H1797       H  0.14886692  0.21485417  0.08299286     0.09100
H1798       H  0.13069054  0.20928060  0.12881074     0.12700
H1799       H  0.11334611  0.29734850  0.07729063     0.11400
H1800       H  0.08421113  0.31494355  0.11535975     0.12600
H1801       H  0.06105491  0.30819099  0.16044586     0.11600
H1802       H  0.12254102  0.21027411  0.17176780     0.08700
H1803       H  0.09478809  0.20159992  0.21251663     0.12000
H1804       H  0.04855280  0.27758735  0.19940919     0.13800
C1805       C  0.13033807  0.26108040  0.93860097    -0.01700
C1806       C  0.11383792  0.28299963  0.92838466    -0.09700
C1807       C  0.10137339  0.28122432  0.90182685    -0.18500
C1808       C  0.10551660  0.25752608  0.88449557     0.03900
C1809       C  0.12246516  0.23554667  0.89507444     0.18000
C1810       C  0.13434260  0.23742361  0.92176572    -0.20000
C1811       C  0.12761558  0.21167127  0.87900891    -0.21200
C1812       C  0.11541635  0.20856705  0.85287138    -0.19800
C1813       C  0.09778449  0.22925753  0.84220760     0.19400
C1814       C  0.09307100  0.25440105  0.85739709     0.01600
C1815       C  0.07536657  0.27472722  0.84511099    -0.14500
C1816       C  0.06095527  0.26909284  0.82015800    -0.12200
C1817       C  0.06400793  0.24326246  0.80681768     0.01100
C1818       C  0.08352195  0.22411354  0.81713607    -0.24400
H1819       H  0.11063884  0.30159964  0.94090182     0.09100
H1820       H  0.08874676  0.29871678  0.89539722     0.12700
H1821       H  0.14749786  0.22050241  0.92914287     0.11400
H1822       H  0.14080763  0.19503669  0.88692271     0.12600
H1823       H  0.11922865  0.18951471  0.84123083     0.11600
H1824       H  0.07129515  0.29459048  0.85490028     0.08700
H1825       H  0.04580583  0.28409599  0.81248253     0.12000
H1826       H  0.08600942  0.20415531  0.80664541     0.13800
C1827       C  0.24457436  0.20322978  0.94433051    -0.01700
C1828       C  0.27114212  0.19115903  0.94710197    -0.09700
C1829       C  0.27809883  0.16721803  0.93175021    -0.18500
C1830       C  0.25831202  0.15463722  0.91354586     0.03900
C1831       C  0.23238733  0.16871527  0.90918497     0.18000
C1832       C  0.22609196  0.19298701  0.92409226    -0.20000
C1833       C  0.21189937  0.15746955  0.89157350    -0.21200
C1834       C  0.21577926  0.13152935  0.87946978    -0.19800
C1835       C  0.24037996  0.11646665  0.88443611     0.19400
C1836       C  0.26247369  0.12798814  0.90072538     0.01600
C1837       C  0.28718912  0.11185028  0.90408762    -0.14500
C1838       C  0.28936930  0.08506959  0.89235571    -0.12200
C1839       C  0.26686653  0.07357400  0.87743980     0.01100
C1840       C  0.24268543  0.08966004  0.87334448    -0.24400
H1841       H  0.28568887  0.19887785  0.96273945     0.09100
H1842       H  0.29839288  0.15816625  0.93575566     0.12700
H1843       H  0.20560405  0.20259522  0.92176033     0.11400
H1844       H  0.19224122  0.16828555  0.88805685     0.12600
H1845       H  0.19911866  0.12289542  0.86665223     0.11600
H1846       H  0.30509148  0.11935205  0.91564533     0.08700
H1847       H  0.30853441  0.07327091  0.89516192     0.12000
H1848       H  0.22546736  0.08141698  0.86098302     0.13800
C1849       C  0.66588896  0.93946155  0.23499468    -0.01700
C1850       C  0.66204871  0.93420486  0.26360197    -0.09700
C1851       C  0.64341280  0.91360857  0.27268534    -0.18500
C1852       C  0.62784629  0.89740970  0.25332414     0.03900
C1853       C  0.63209814  0.90252290  0.22432214     0.18000
C1854       C  0.65089730  0.92329547  0.21549687    -0.20000
C1855       C  0.61736354  0.88706292  0.20422514    -0.21200
C1856       C  0.59812492  0.86684438  0.21227797    -0.19800
C1857       C  0.59306165  0.86158412  0.24064027     0.19400
C1858       C  0.60797762  0.87662056  0.26161868     0.01600
C1859       C  0.60199939  0.87045180  0.28994612    -0.14500
C1860       C  0.58151217  0.85089110  0.29705507    -0.12200
C1861       C  0.56641756  0.83654521  0.27631621     0.01100
C1862       C  0.57273283  0.84169282  0.24810901    -0.24400
H1863       H  0.67331027  0.94626318  0.27917623     0.09100
H1864       H  0.64156445  0.91102867  0.29497669     0.12700
H1865       H  0.65369405  0.92695589  0.19328260     0.11400
H1866       H  0.62057520  0.89079041  0.18208088     0.12600
H1867       H  0.58689385  0.85543954  0.19617575     0.11600
H1868       H  0.61248772  0.88061150  0.30711307     0.08700
H1869       H  0.57733779  0.84716682  0.31903011     0.12000
H1870       H  0.56124645  0.83077340  0.23184470     0.13800
C1871       C  0.56274153  0.16694441  0.26586575    -0.01700
C1872       C  0.58350032  0.15995529  0.28537246    -0.09700
C1873       C  0.60437369  0.14072143  0.27883913    -0.18500
C1874       C  0.60500579  0.12730592  0.25247397     0.03900
C1875       C  0.58383485  0.13436995  0.23266479     0.18000
C1876       C  0.56321482  0.15439626  0.23933203    -0.20000
C1877       C  0.58309346  0.12099029  0.20658009    -0.21200
C1878       C  0.60280444  0.10063413  0.19979751    -0.19800
C1879       C  0.62400153  0.09338528  0.21877785     0.19400
C1880       C  0.62559473  0.10683027  0.24527991     0.01600
C1881       C  0.64770370  0.09911752  0.26347062    -0.14500
C1882       C  0.66704608  0.07861491  0.25590736    -0.12200
C1883       C  0.66516503  0.06497326  0.23001774     0.01100
C1884       C  0.64358590  0.07265064  0.21146310    -0.24400
H1885       H  0.58354677  0.16942578  0.30601037     0.09100
H1886       H  0.61937510  0.13647749  0.29515874     0.12700
H1887       H  0.54694975  0.15944246  0.22428846     0.11400
H1888       H  0.56697616  0.12609710  0.19141696     0.12600
H1889       H  0.60146973  0.09049398  0.17952540     0.11600
H1890       H  0.65074909  0.10854143  0.28374841     0.08700
H1891       H  0.68345460  0.07326189  0.27064221     0.12000
H1892       H  0.64189529  0.06240120  0.19126172     0.13800
C1893       C  0.74733009  0.06401372  0.12780881    -0.01700
C1894       C  0.77469313  0.07469229  0.12686549    -0.09700
C1895       C  0.78010519  0.10091910  0.11580507    -0.18500
C1896       C  0.75826629  0.11750974  0.10490559     0.03900
C1897       C  0.73090964  0.10585241  0.10360049     0.18000
C1898       C  0.72550181  0.07952688  0.11562442    -0.20000
C1899       C  0.70928718  0.12067036  0.09040018    -0.21200
C1900       C  0.71446658  0.14659021  0.07816060    -0.19800
C1901       C  0.74103437  0.15895960  0.08006534     0.19400
C1902       C  0.76291351  0.14497938  0.09457770     0.01600
C1903       C  0.78856852  0.15913164  0.09834168    -0.14500
C1904       C  0.79339762  0.18468614  0.08555660    -0.12200
C1905       C  0.77297572  0.19705652  0.06845855     0.01100
C1906       C  0.74627972  0.18475826  0.06687822    -0.24400
H1907       H  0.79208629  0.06319793  0.13578947     0.09100
H1908       H  0.80172531  0.10753162  0.11582410     0.12700
H1909       H  0.70433199  0.07128913  0.11576463     0.11400
H1910       H  0.68838954  0.11190252  0.08901867     0.12600
H1911       H  0.69752878  0.15713179  0.06735252     0.11600
H1912       H  0.80543425  0.15086366  0.11090492     0.08700
H1913       H  0.81393781  0.19408972  0.08783658     0.12000
H1914       H  0.73019780  0.19427012  0.05397879     0.13800
C1915       C  0.74331573  0.92717501  0.13757393    -0.01700
C1916       C  0.72269805  0.91886758  0.11837045    -0.09700
C1917       C  0.72343732  0.89225402  0.10623316    -0.18500
C1918       C  0.74487440  0.87299606  0.11312568     0.03900
C1919       C  0.76533966  0.88143778  0.13309009     0.18000
C1920       C  0.76437580  0.90814238  0.14496572    -0.20000
C1921       C  0.78706760  0.86340863  0.14079242    -0.21200
C1922       C  0.78989062  0.83761016  0.12794684    -0.19800
C1923       C  0.77093080  0.82918514  0.10726030     0.19400
C1924       C  0.74752835  0.84618007  0.10019627     0.01600
C1925       C  0.72869356  0.83603994  0.07957823    -0.14500
C1926       C  0.73466333  0.81164905  0.06451314    -0.12200
C1927       C  0.75929925  0.79672415  0.06983402     0.01100
C1928       C  0.77638602  0.80467773  0.09228414    -0.24400
H1929       H  0.70601342  0.93304943  0.11254802     0.09100
H1930       H  0.70715041  0.88748097  0.09131912     0.12700
H1931       H  0.78018520  0.91407035  0.16019130     0.11400
H1932       H  0.80249649  0.86964871  0.15627141     0.12600
H1933       H  0.80755988  0.82453702  0.13359333     0.11600
H1934       H  0.70994584  0.84716075  0.07373121     0.08700
H1935       H  0.72117393  0.80573559  0.04722266     0.12000
H1936       H  0.79533667  0.79289067  0.09661273     0.13800
C1937       C  0.80160930  0.94271430  0.24962512    -0.01700
C1938       C  0.80821739  0.92027822  0.23212672    -0.09700
C1939       C  0.83200640  0.90422991  0.23693084    -0.18500
C1940       C  0.85041436  0.91061091  0.25924071     0.03900
C1941       C  0.84203632  0.93139957  0.27879720     0.18000
C1942       C  0.81772437  0.94744957  0.27376389    -0.20000
C1943       C  0.85878605  0.93686421  0.30232157    -0.21200
C1944       C  0.88411669  0.92276933  0.30626032    -0.19800
C1945       C  0.89389274  0.90372467  0.28618263     0.19400
C1946       C  0.87717996  0.89767839  0.26224153     0.01600
C1947       C  0.88852770  0.88004623  0.24146721    -0.14500
C1948       C  0.91504069  0.86848236  0.24448593    -0.12200
C1949       C  0.93132903  0.87358027  0.26843459     0.01100
C1950       C  0.92050660  0.89114110  0.28942668    -0.24400
H1951       H  0.79577388  0.91621897  0.21354794     0.09100
H1952       H  0.83579425  0.88746543  0.22233478     0.12700
H1953       H  0.81263265  0.96490021  0.28733028     0.11400
H1954       H  0.85242115  0.95237336  0.31759580     0.12600
H1955       H  0.89661926  0.92755620  0.32461371     0.11600
H1956       H  0.87777022  0.87530611  0.22217773     0.08700
H1957       H  0.92260217  0.85496661  0.22791800     0.12000
H1958       H  0.93292837  0.89538093  0.30797984     0.13800
C1959       C  0.80385817  0.06436543  0.23956592    -0.01700
C1960       C  0.81623243  0.06210430  0.26608686    -0.09700
C1961       C  0.84031081  0.07751841  0.27281159    -0.18500
C1962       C  0.85274233  0.09568404  0.25303052     0.03900
C1963       C  0.83852983  0.09960225  0.22711303     0.18000
C1964       C  0.81442943  0.08406441  0.22070544    -0.20000
C1965       C  0.84922862  0.11792114  0.20704407    -0.21200
C1966       C  0.87459865  0.13138266  0.21145931    -0.19800
C1967       C  0.89000900  0.12669406  0.23595592     0.19400
C1968       C  0.87918295  0.10926056  0.25741223     0.01600
C1969       C  0.89582753  0.10549413  0.28173134    -0.14500
C1970       C  0.92230910  0.11803734  0.28426169    -0.12200
C1971       C  0.93310373  0.13464122  0.26267939     0.01100
C1972       C  0.91650048  0.13905257  0.23876590    -0.24400
H1973       H  0.80840377  0.04701587  0.28100941     0.09100
H1974       H  0.84929425  0.07403102  0.29323103     0.12700
H1975       H  0.80473390  0.08616369  0.20024779     0.11400
H1976       H  0.83827808  0.12127289  0.18743047     0.12600
H1977       H  0.88261352  0.14496167  0.19521225     0.11600
H1978       H  0.88906968  0.09272568  0.29900827     0.08700
H1979       H  0.93439528  0.11462549  0.30315152     0.12000
H1980       H  0.92419624  0.15224431  0.22203731     0.13800
C1981       C  0.43870608  0.83659256  0.27639689    -0.01700
C1982       C  0.42056906  0.84686209  0.29705176    -0.09700
C1983       C  0.39927469  0.86564914  0.29026752    -0.18500
C1984       C  0.39575235  0.87520927  0.26248498     0.03900
C1985       C  0.41414340  0.86449186  0.24159506     0.18000
C1986       C  0.43507342  0.84514520  0.24863422    -0.20000
C1987       C  0.41192394  0.87353002  0.21386044    -0.21200
C1988       C  0.39208223  0.89336167  0.20640317    -0.19800
C1989       C  0.37385156  0.90451811  0.22646594     0.19400
C1990       C  0.37510983  0.89540536  0.25473943     0.01600
C1991       C  0.35591367  0.90724277  0.27400535    -0.14500
C1992       C  0.33690514  0.92781909  0.26566734    -0.12200
C1993       C  0.33630739  0.93726023  0.23792182     0.01100
C1994       C  0.35462709  0.92512088  0.21838957    -0.24400
H1995       H  0.42284033  0.84029189  0.31863357     0.09100
H1996       H  0.38622849  0.87260320  0.30732821     0.12700
H1997       H  0.44916829  0.83739199  0.23257946     0.11400
H1998       H  0.42588737  0.86546663  0.19786626     0.12600
H1999       H  0.39114360  0.90019599  0.18480099     0.11600
H2000       H  0.35518746  0.90124129  0.29572411     0.08700
H2001       H  0.32290507  0.93666205  0.28117759     0.12000
H2002       H  0.35426818  0.93198748  0.19677140     0.13800
C2003       C  0.43439251  0.17033629  0.27169398    -0.01700
C2004       C  0.42008270  0.15670781  0.29329720    -0.09700
C2005       C  0.39915958  0.13734820  0.28741835    -0.18500
C2006       C  0.39203101  0.13060637  0.25949727     0.03900
C2007       C  0.40561835  0.14548321  0.23761150     0.18000
C2008       C  0.42643978  0.16528569  0.24387272    -0.20000
C2009       C  0.39892970  0.13991064  0.20961009    -0.21200
C2010       C  0.37973632  0.11915739  0.20281359    -0.19800
C2011       C  0.36687641  0.10342073  0.22385588     0.19400
C2012       C  0.37247711  0.10917343  0.25252929     0.01600
C2013       C  0.35884549  0.09267662  0.27294872    -0.14500
C2014       C  0.34090435  0.07106248  0.26518479    -0.12200
C2015       C  0.33603252  0.06505793  0.23692804     0.01100
C2016       C  0.34882480  0.08155709  0.21636053    -0.24400
H2017       H  0.42536526  0.16072401  0.31501202     0.09100
H2018       H  0.38937369  0.12770934  0.30525464     0.12700
H2019       H  0.43724860  0.17590693  0.22701034     0.11400
H2020       H  0.40899714  0.15132712  0.19282972     0.12600
H2021       H  0.37533578  0.11501735  0.18091905     0.11600
H2022       H  0.36185071  0.09561090  0.29511149     0.08700
H2023       H  0.33123275  0.05862044  0.28143918     0.12000
H2024       H  0.34485264  0.07728187  0.19439540     0.13800
C2025       C  0.24600705  0.80150790  0.06764497    -0.01700
C2026       C  0.22919573  0.80733032  0.09085648    -0.09700
C2027       C  0.23307979  0.83164664  0.10628046    -0.18500
C2028       C  0.25367408  0.85131864  0.09843021     0.03900
C2029       C  0.27255151  0.84400372  0.07658012     0.18000
C2030       C  0.26853459  0.81914617  0.06128973    -0.20000
C2031       C  0.29431233  0.86223044  0.06931316    -0.21200
C2032       C  0.29733976  0.88782067  0.08294040    -0.19800
C2033       C  0.27803721  0.89626751  0.10338751     0.19400
C2034       C  0.25565597  0.87822627  0.11102745     0.01600
C2035       C  0.23541884  0.88830309  0.13008266    -0.14500
C2036       C  0.23770588  0.91481039  0.14165525    -0.12200
C2037       C  0.26037307  0.93219355  0.13513051     0.01100
C2038       C  0.28060962  0.92278828  0.11598477    -0.24400
H2039       H  0.21173394  0.79380864  0.09599450     0.09100
H2040       H  0.21910508  0.83477562  0.12370270     0.12700
H2041       H  0.28140366  0.81472925  0.04309522     0.11400
H2042       H  0.30894975  0.85675450  0.05284323     0.12600
H2043       H  0.31440214  0.90144033  0.07686178     0.11600
H2044       H  0.21722126  0.87648020  0.13609025     0.08700
H2045       H  0.22182615  0.92145791  0.15647113     0.12000
H2046       H  0.29808061  0.93621061  0.11064016     0.13800
C2047       C  0.26250848  0.07083484  0.13649913    -0.01700
C2048       C  0.28491523  0.08162715  0.12098762    -0.09700
C2049       C  0.28324071  0.10828446  0.10913877    -0.18500
C2050       C  0.25906500  0.12509596  0.11277810     0.03900
C2051       C  0.23691168  0.11430837  0.12944822     0.18000
C2052       C  0.23877413  0.08754274  0.14087412    -0.20000
C2053       C  0.21268976  0.13004325  0.13429669    -0.21200
C2054       C  0.20909288  0.15565622  0.12140176    -0.19800
C2055       C  0.22969695  0.16613125  0.10348633     0.19400
C2056       C  0.25546544  0.15165282  0.09967505     0.01600
C2057       C  0.27575979  0.16381114  0.08179672    -0.14500
C2058       C  0.26948028  0.18774455  0.06623010    -0.12200
C2059       C  0.24303840  0.20017082  0.06830901     0.01100
C2060       C  0.22385328  0.19014052  0.08796695    -0.24400
H2061       H  0.30375559  0.06938373  0.11789050     0.09100
H2062       H  0.30106981  0.11506497  0.09711505     0.12700
H2063       H  0.22162407  0.07980612  0.15356725     0.11400
H2064       H  0.19600747  0.12208487  0.14745668     0.12600
H2065       H  0.18962614  0.16688332  0.12467854     0.11600
H2066       H  0.29609423  0.15461834  0.07844079     0.08700
H2067       H  0.28455040  0.19531353  0.05107520     0.12000
H2068       H  0.20344416  0.20000715  0.08972692     0.13800
C2069       C  0.20024581  0.94085652  0.24664518    -0.01700
C2070       C  0.18971041  0.94179896  0.27398615    -0.09700
C2071       C  0.16565100  0.92662983  0.28098302    -0.18500
C2072       C  0.15141215  0.91042953  0.26063429     0.03900
C2073       C  0.16391050  0.90787164  0.23368806     0.18000
C2074       C  0.18820193  0.92266659  0.22719811    -0.20000
C2075       C  0.15122189  0.89197434  0.21267314    -0.21200
C2076       C  0.12542413  0.87969200  0.21723520    -0.19800
C2077       C  0.11181510  0.88299128  0.24293759     0.19400
C2078       C  0.12474489  0.89772127  0.26535624     0.01600
C2079       C  0.10991785  0.89966695  0.29098149    -0.14500
C2080       C  0.08321327  0.88788386  0.29396700    -0.12200
C2081       C  0.07043757  0.87421063  0.27134193     0.01100
C2082       C  0.08508906  0.87173300  0.24607530    -0.24400
H2083       H  0.19888852  0.95572662  0.28930539     0.09100
H2084       H  0.15784451  0.92905341  0.30228842     0.12700
H2085       H  0.19669645  0.92161096  0.20605953     0.11400
H2086       H  0.16089160  0.88980130  0.19220163     0.12600
H2087       H  0.11572929  0.86805919  0.20028254     0.11600
H2088       H  0.11853319  0.91028574  0.30925419     0.08700
H2089       H  0.07254116  0.88945907  0.31388500     0.12000
H2090       H  0.07583413  0.86038106  0.22861969     0.13800
C2091       C  0.07354739  0.13326589  0.26761668    -0.01700
C2092       C  0.08703521  0.13593903  0.24172716    -0.09700
C2093       C  0.11400145  0.12573413  0.23769925    -0.18500
C2094       C  0.12839201  0.11180357  0.25941186     0.03900
C2095       C  0.11474265  0.10906036  0.28574131     0.18000
C2096       C  0.08777538  0.12039620  0.28983541    -0.20000
C2097       C  0.12775084  0.09423971  0.30742170    -0.21200
C2098       C  0.15313442  0.08052376  0.30289132    -0.19800
C2099       C  0.16654659  0.08206278  0.27685274     0.19400
C2100       C  0.15507419  0.09903580  0.25529951     0.01600
C2101       C  0.17017687  0.10141821  0.22999831    -0.14500
C2102       C  0.19337691  0.08466105  0.22485459    -0.12200
C2103       C  0.20268047  0.06550013  0.24487456     0.01100
C2104       C  0.19036944  0.06547390  0.27151553    -0.24400
H2105       H  0.07681617  0.14647069  0.22444822     0.09100
H2106       H  0.12261423  0.12840432  0.21700542     0.12700
H2107       H  0.07756829  0.11854172  0.31003489     0.11400
H2108       H  0.11763908  0.09222442  0.32763773     0.12600
H2109       H  0.16196389  0.06805730  0.31962888     0.11600
H2110       H  0.16405754  0.11530714  0.21333865     0.08700
H2111       H  0.20320220  0.08555418  0.20441592     0.12000
H2112       H  0.19774569  0.05086322  0.28719275     0.13800
loop_ 
_geom_bond_atom_site_label_1 
_geom_bond_atom_site_label_2 
_geom_bond_distance 
_geom_bond_site_symmetry_2 
_ccdc_geom_bond_type 
Fe1          O17   2.045   1_545  S
Fe1           O7   2.037   1_545  S
Fe1          O14   2.044       .  S
Fe1           O6   2.035       .  S
Fe1          O12   1.962       .  S
Fe2           O5   2.054   1_545  S
Fe2           O9   2.077   1_545  S
Fe2          O13   2.069       .  S
Fe2          O18   2.051       .  S
Fe2          O12   1.984       .  S
Fe3          O21   2.076   1_545  S
Fe3           O8   2.064       .  S
Fe3          O15   2.075   1_545  S
Fe3           O4   2.085       .  S
Fe3          O12   1.990       .  S
O4           C11   1.271       .  A
O5           C19   1.269       .  A
O6           C11   1.264       .  A
O7           C10   1.266       .  A
O8           C20   1.270       .  A
O9           C22   1.268       .  A
C10          O15   1.269       .  A
C10        C2069   1.469       .  S
C11        C2103   1.472       .  S
O13          C16   1.267       .  A
O14          C16   1.265       .  A
C16        C2047   1.480       .  S
O17          C22   1.265       .  A
O18          C20   1.267       .  A
C19          O21   1.272       .  A
C19        C1993   1.484       .  S
C20        C2015   1.475       .  S
C22        C2037   1.479       .  S
Fe23         O39   2.058   1_565  S
Fe23         O29   2.048   1_565  S
Fe23         O36   2.042       .  S
Fe23         O28   2.046       .  S
Fe23         O34   1.954   1_565  S
Fe24         O27   2.065   1_565  S
Fe24         O31   2.072   1_565  S
Fe24         O35   2.088       .  S
Fe24         O40   2.058       .  S
Fe24         O34   1.972   1_565  S
Fe25         O43   2.072       .  S
Fe25         O30   2.090   1_545  S
Fe25         O37   2.101       .  S
Fe25         O26   2.080   1_545  S
Fe25         O34   1.970       .  S
O26          C33   1.269       .  A
O27          C41   1.269       .  A
O28          C33   1.264       .  A
O29          C32   1.269       .  A
O30          C42   1.276       .  A
O31          C44   1.268       .  A
C32          O37   1.277       .  A
C32        C1959   1.481       .  S
C33        C1937   1.469       .  S
O35          C38   1.272       .  A
O36          C38   1.266       .  A
C38        C1915   1.482       .  S
O39          C44   1.267       .  A
O40          C42   1.271       .  A
C41          O43   1.273       .  A
C41        C1883   1.486       .  S
C42        C1849   1.488       .  S
C44        C1893   1.483       .  S
Fe45         O61   2.041   1_554  S
Fe45         O51   2.035   1_554  S
Fe45         O58   2.035       .  S
Fe45         O50   2.041       .  S
Fe45         O56   1.961       .  S
Fe46         O49   2.042   1_554  S
Fe46         O53   2.076   1_554  S
Fe46         O57   2.060       .  S
Fe46         O62   2.059       .  S
Fe46         O56   1.985       .  S
Fe47         O65   2.065   1_554  S
Fe47         O52   2.060       .  S
Fe47         O59   2.074   1_554  S
Fe47         O48   2.078       .  S
Fe47         O56   1.988       .  S
O48          C55   1.270       .  A
O49          C63   1.266       .  A
O50          C55   1.265       .  A
O51          C54   1.265       .  A
O52          C64   1.269       .  A
O53          C66   1.268       .  A
C54          O59   1.268       .  A
C54        C1827   1.467       .  S
C55        C2059   1.469       .  S
O57          C60   1.266       .  A
O58          C60   1.264       .  A
C60        C1783   1.472       .  S
O61          C66   1.264       .  A
O62          C64   1.268       .  A
C63          O65   1.271       .  A
C63        C1739   1.469       .  S
C64        C1773   1.476       .  S
C66        C1805   1.481       .  S
Fe67         O83   2.030       .  S
Fe67         O73   2.035       .  S
Fe67         O80   2.052   1_554  S
Fe67         O72   2.025   1_554  S
Fe67         O78   1.956       .  S
Fe68         O71   2.032       .  S
Fe68         O75   2.089       .  S
Fe68         O79   2.055   1_554  S
Fe68         O84   2.054   1_554  S
Fe68         O78   1.976       .  S
Fe69         O87   2.095       .  S
Fe69         O74   2.071   1_554  S
Fe69         O81   2.076       .  S
Fe69         O70   2.101   1_554  S
Fe69         O78   1.988       .  S
O70          C77   1.277       .  A
O71          C85   1.266       .  A
O72          C77   1.266       .  A
O73          C76   1.262       .  A
O74          C86   1.271       .  A
O75          C88   1.272       .  A
C76          O81   1.267       .  A
C76        C2025   1.464       .  S
C77        C1717   1.477       .  S
O79          C82   1.263       .  A
O80          C82   1.265       .  A
C82        C1673   1.479       .  S
O83          C88   1.264       .  A
O84          C86   1.267       .  A
C85          O87   1.276       .  A
C85        C1641   1.484       .  S
C86        C1651   1.476       .  S
C88        C1695   1.480       .  S
Fe89        O105   2.051       .  S
Fe89         O95   2.036       .  S
Fe89        O102   2.045   1_455  S
Fe89         O94   2.042   1_455  S
Fe89        O100   1.961       .  S
Fe90         O93   2.058       .  S
Fe90         O97   2.083       .  S
Fe90        O101   2.082   1_455  S
Fe90        O106   2.060   1_455  S
Fe90        O100   1.984       .  S
Fe91        O109   2.068       .  S
Fe91         O96   2.073   1_455  S
Fe91        O103   2.080       .  S
Fe91         O92   2.074   1_455  S
Fe91        O100   1.992       .  S
O92          C99   1.269       .  A
O93         C107   1.269       .  A
O94          C99   1.266       .  A
O95          C98   1.264       .  A
O96         C108   1.271       .  A
O97         C110   1.270       .  A
C98         O103   1.270       .  A
C98        C1817   1.469       .  S
C99        C1619   1.463       .  S
O101        C104   1.269       .  A
O102        C104   1.264       .  A
C104       C1575   1.486       .  S
O105        C110   1.266       .  A
O106        C108   1.270       .  A
C107        O109   1.270       .  A
C107       C1553   1.481       .  S
C108       C1531   1.482       .  S
C110       C1585   1.485       .  S
Fe111       O127   2.037   1_455  S
Fe111       O117   2.049   1_455  S
Fe111       O124   2.059       .  S
Fe111       O116   2.033       .  S
Fe111       O122   1.944       .  S
Fe112       O115   2.039   1_455  S
Fe112       O119   2.107   1_455  S
Fe112       O123   2.061       .  S
Fe112       O128   2.075       .  S
Fe112       O122   1.954       .  S
Fe113       O131   2.091   1_455  S
Fe113       O118   2.068       .  S
Fe113       O125   2.071   1_455  S
Fe113       O114   2.093       .  S
Fe113       O122   1.964       .  S
O114        C121   1.274       .  A
O115        C129   1.268       .  A
O116        C121   1.267       .  A
O117        C120   1.266       .  A
O118        C130   1.272       .  A
O119        C132   1.278       .  A
C120        O125   1.269       .  A
C120       C1509   1.465       .  S
C121       C1795   1.468       .  S
O123        C126   1.263       .  A
O124        C126   1.265       .  A
C126       C2091   1.477       .  S
O127        C132   1.267       .  A
O128        C130   1.273       .  A
C129        O131   1.275       .  A
C129       C1465   1.481       .  S
C130       C1475   1.486       .  S
C132       C1971   1.490       .  S
Fe133       O149   2.042       .  S
Fe133       O139   2.047       .  S
Fe133       O146   2.038   1_455  S
Fe133       O138   2.044   1_455  S
Fe133       O144   1.957       .  S
Fe134       O137   2.067       .  S
Fe134       O141   2.063       .  S
Fe134       O145   2.090   1_455  S
Fe134       O150   2.044   1_455  S
Fe134       O144   1.983       .  S
Fe135       O153   2.061       .  S
Fe135       O140   2.068   1_455  S
Fe135       O147   2.077       .  S
Fe135       O136   2.072   1_455  S
Fe135       O144   1.982       .  S
O136        C143   1.269       .  A
O137        C151   1.270       .  A
O138        C143   1.265       .  A
O139        C142   1.266       .  A
O140        C152   1.270       .  A
O141        C154   1.266       .  A
C142        O147   1.270       .  A
C142       C1707   1.470       .  S
C143       C1443   1.467       .  S
O145        C148   1.271       .  A
O146        C148   1.265       .  A
C148       C1949   1.485       .  S
O149        C154   1.265       .  A
O150        C152   1.266       .  A
C151        O153   1.271       .  A
C151       C1387   1.479       .  S
C152       C1409   1.472       .  S
C154       C2081   1.476       .  S
Fe155       O171   2.038   1_554  S
Fe155       O161   2.046   1_554  S
Fe155       O168   2.051       .  S
Fe155       O160   2.034       .  S
Fe155       O166   1.952       .  S
Fe156       O159   2.047   1_554  S
Fe156       O163   2.082   1_554  S
Fe156       O167   2.068       .  S
Fe156       O172   2.056       .  S
Fe156       O166   1.976       .  S
Fe157       O175   2.082   1_554  S
Fe157       O162   2.055       .  S
Fe157       O169   2.065   1_554  S
Fe157       O158   2.089       .  S
Fe157       O166   1.981       .  S
O158        C165   1.272       .  A
O159        C173   1.267       .  A
O160        C165   1.264       .  A
O161        C164   1.266       .  A
O162        C174   1.269       .  A
O163        C176   1.270       .  A
C164        O169   1.268       .  A
C164       C1377   1.461       .  S
C165       C1927   1.471       .  S
O167        C170   1.267       .  A
O168        C170   1.266       .  A
C170       C1431   1.479       .  S
O171        C176   1.265       .  A
O172        C174   1.269       .  A
C173        O175   1.273       .  A
C173       C1311   1.481       .  S
C174       C1321   1.475       .  S
C176       C1355   1.483       .  S
Fe177       O193   2.032       .  S
Fe177       O183   2.041       .  S
Fe177       O190   2.040   1_545  S
Fe177       O182   2.030   1_545  S
Fe177       O188   1.956       .  S
Fe178       O181   2.042       .  S
Fe178       O185   2.074       .  S
Fe178       O189   2.073   1_545  S
Fe178       O194   2.053   1_545  S
Fe178       O188   1.983       .  S
Fe179       O197   2.082   1_565  S
Fe179       O184   2.085       .  S
Fe179       O191   2.096   1_565  S
Fe179       O180   2.090       .  S
Fe179       O188   1.988   1_565  S
O180        C187   1.273       .  A
O181        C195   1.267       .  A
O182        C187   1.264       .  A
O183        C186   1.266       .  A
O184        C196   1.274       .  A
O185        C198   1.266       .  A
C186        O191   1.274       .  A
C186       C1597   1.480       .  S
C187       C1289   1.479       .  S
O189        C192   1.269       .  A
O190        C192   1.266       .  A
C192       C1729   1.481       .  S
O193        C198   1.262       .  A
O194        C196   1.267       .  A
C195        O197   1.273       .  A
C195       C1233   1.472       .  S
C196       C1255   1.486       .  S
C198       C1839   1.477       .  S
Fe199       O215   2.030   1_455  S
Fe199       O205   2.037   1_455  S
Fe199       O212   2.051       .  S
Fe199       O204   2.026       .  S
Fe199       O210   1.957       .  S
Fe200       O203   2.038   1_455  S
Fe200       O207   2.081   1_455  S
Fe200       O211   2.063       .  S
Fe200       O216   2.051       .  S
Fe200       O210   1.979       .  S
Fe201       O219   2.095   1_455  S
Fe201       O206   2.069       .  S
Fe201       O213   2.083   1_455  S
Fe201       O202   2.099       .  S
Fe201       O210   1.988       .  S
O202        C209   1.276       .  A
O203        C217   1.267       .  A
O204        C209   1.266       .  A
O205        C208   1.263       .  A
O206        C218   1.270       .  A
O207        C220   1.270       .  A
C208        O213   1.268       .  A
C208       C1343   1.470       .  S
C209       C1685   1.475       .  S
O211        C214   1.265       .  A
O212        C214   1.265       .  A
C214       C1277   1.483       .  S
O215        C220   1.263       .  A
O216        C218   1.267       .  A
C217        O219   1.277       .  A
C217       C1167   1.483       .  S
C218       C1189   1.480       .  S
C220       C1223   1.476       .  S
Fe221       O237   2.045       .  S
Fe221       O227   2.031       .  S
Fe221       O234   2.033   1_554  S
Fe221       O226   2.029   1_554  S
Fe221       O232   1.952       .  S
Fe222       O225   2.053       .  S
Fe222       O229   2.058       .  S
Fe222       O233   2.090   1_554  S
Fe222       O238   2.030   1_554  S
Fe222       O232   1.971       .  S
Fe223       O241   2.080       .  S
Fe223       O228   2.094   1_554  S
Fe223       O235   2.107       .  S
Fe223       O224   2.085   1_554  S
Fe223       O232   1.985       .  S
O224        C231   1.270       .  A
O225        C239   1.268       .  A
O226        C231   1.262       .  A
O227        C230   1.267       .  A
O228        C240   1.275       .  A
O229        C242   1.263       .  A
C230        O235   1.278       .  A
C230       C1905   1.481       .  S
C231       C1145   1.474       .  S
O233        C236   1.272       .  A
O234        C236   1.265       .  A
C236       C1607   1.480       .  S
O237        C242   1.263       .  A
O238        C240   1.266       .  A
C239        O241   1.273       .  A
C239       C1113   1.475       .  S
C240       C1135   1.482       .  S
C242       C1497   1.473       .  S
Fe243       O259   2.031       .  S
Fe243       O249   2.051       .  S
Fe243       O256   2.060   1_565  S
Fe243       O248   2.037   1_565  S
Fe243       O254   1.952       .  S
Fe244       O247   2.035       .  S
Fe244       O251   2.080       .  S
Fe244       O255   2.055   1_565  S
Fe244       O260   2.059   1_565  S
Fe244       O254   1.974       .  S
Fe245       O263   2.092       .  S
Fe245       O250   2.059   1_565  S
Fe245       O257   2.063       .  S
Fe245       O246   2.101   1_565  S
Fe245       O254   1.978       .  S
O246        C253   1.275       .  A
O247        C261   1.265       .  A
O248        C253   1.266       .  A
O249        C252   1.267       .  A
O250        C262   1.270       .  A
O251        C264   1.269       .  A
C252        O257   1.267       .  A
C252       C1211   1.462       .  S
C253       C1563   1.480       .  S
O255        C258   1.265       .  A
O256        C258   1.269       .  A
C258       C1157   1.479       .  S
O259        C264   1.263       .  A
O260        C262   1.269       .  A
C261        O263   1.275       .  A
C261       C1057   1.478       .  S
C262       C1079   1.477       .  S
C264       C1365   1.479       .  S
Fe265       O281   2.040       .  S
Fe265       O271   2.037       .  S
Fe265       O278   2.047       .  S
Fe265       O270   2.031       .  S
Fe265       O276   1.962       .  S
Fe266       O269   2.045       .  S
Fe266       O273   2.083       .  S
Fe266       O277   2.070       .  S
Fe266       O282   2.054       .  S
Fe266       O276   1.982       .  S
Fe267       O285   2.089       .  S
Fe267       O272   2.069       .  S
Fe267       O279   2.075       .  S
Fe267       O268   2.094       .  S
Fe267       O276   1.995       .  S
O268        C275   1.272       .  A
O269        C283   1.267       .  A
O270        C275   1.263       .  A
O271        C274   1.266       .  A
O272        C284   1.270       .  A
O273        C286   1.268       .  A
C274        O279   1.270       .  A
C274       C1013   1.465       .  S
C275       C1047   1.474       .  S
O277        C280   1.268       .  A
O278        C280   1.265       .  A
C280        C991   1.480       .  S
O281        C286   1.263       .  A
O282        C284   1.269       .  A
C283        O285   1.273       .  A
C283       C1871   1.477       .  S
C284       C2003   1.477       .  S
C286        C981   1.484       .  S
Fe287       O303   2.045       .  S
Fe287       O293   2.033       .  S
Fe287       O300   2.057       .  S
Fe287       O292   2.039       .  S
Fe287       O298   1.956       .  S
Fe288       O291   2.041       .  S
Fe288       O295   2.080       .  S
Fe288       O299   2.061       .  S
Fe288       O304   2.053       .  S
Fe288       O298   1.977       .  S
Fe289       O307   2.091       .  S
Fe289       O294   2.066       .  S
Fe289       O301   2.073       .  S
Fe289       O290   2.098       .  S
Fe289       O298   1.984       .  S
O290        C297   1.276       .  A
O291        C305   1.267       .  A
O292        C297   1.268       .  A
O293        C296   1.262       .  A
O294        C306   1.269       .  A
O295        C308   1.270       .  A
C296        O301   1.267       .  A
C296        C925   1.461       .  S
C297        C947   1.478       .  S
O299        C302   1.265       .  A
O300        C302   1.266       .  A
C302       C1035   1.479       .  S
O303        C308   1.265       .  A
O304        C306   1.267       .  A
C305        O307   1.277       .  A
C305       C1629   1.479       .  S
C306       C1761   1.479       .  S
C308        C903   1.480       .  S
Fe309       O325   2.030       .  S
Fe309       O315   2.042       .  S
Fe309       O322   2.049       .  S
Fe309       O314   2.032       .  S
Fe309       O320   1.960       .  S
Fe310       O313   2.057       .  S
Fe310       O317   2.083       .  S
Fe310       O321   2.075       .  S
Fe310       O326   2.055       .  S
Fe310       O320   1.981       .  S
Fe311       O329   2.074       .  S
Fe311       O316   2.083       .  S
Fe311       O323   2.092       .  S
Fe311       O312   2.087       .  S
Fe311       O320   1.985       .  S
O312        C319   1.273       .  A
O313        C327   1.270       .  A
O314        C319   1.266       .  A
O315        C318   1.264       .  A
O316        C328   1.272       .  A
O317        C330   1.270       .  A
C318        O323   1.271       .  A
C318        C881   1.480       .  S
C319       C1003   1.471       .  S
O321        C324   1.268       .  A
O322        C324   1.265       .  A
C324        C959   1.485       .  S
O325        C330   1.263       .  A
O326        C328   1.267       .  A
C327        O329   1.273       .  A
C327       C1541   1.478       .  S
C328       C1487   1.479       .  S
C330        C859   1.480       .  S
Fe331       O347   2.037       .  S
Fe331       O337   2.037       .  S
Fe331       O344   2.038       .  S
Fe331       O336   2.036       .  S
Fe331       O342   1.954       .  S
Fe332       O335   2.049       .  S
Fe332       O339   2.078       .  S
Fe332       O343   2.066       .  S
Fe332       O348   2.053       .  S
Fe332       O342   1.979       .  S
Fe333       O351   2.068       .  S
Fe333       O338   2.072       .  S
Fe333       O345   2.083       .  S
Fe333       O334   2.075       .  S
Fe333       O342   1.989       .  S
O334        C341   1.269       .  A
O335        C349   1.267       .  A
O336        C341   1.265       .  A
O337        C340   1.265       .  A
O338        C350   1.272       .  A
O339        C352   1.270       .  A
C340        O345   1.270       .  A
C340        C815   1.470       .  S
C341        C837   1.466       .  S
O343        C346   1.265       .  A
O344        C346   1.263       .  A
C346        C805   1.475       .  S
O347        C352   1.266       .  A
O348        C350   1.269       .  A
C349        O351   1.269       .  A
C349       C1399   1.477       .  S
C350       C1201   1.472       .  S
C352        C937   1.476       .  S
Fe353       O369   2.034       .  S
Fe353       O359   2.041       .  S
Fe353       O366   2.043       .  S
Fe353       O358   2.033       .  S
Fe353       O364   1.958       .  S
Fe354       O357   2.038       .  S
Fe354       O361   2.081       .  S
Fe354       O365   2.070       .  S
Fe354       O370   2.050       .  S
Fe354       O364   1.985       .  S
Fe355       O373   2.067       .  S
Fe355       O360   2.073       .  S
Fe355       O367   2.075       .  S
Fe355       O356   2.075       .  S
Fe355       O364   1.992       .  S
O356        C363   1.269       .  A
O357        C371   1.266       .  A
O358        C363   1.264       .  A
O359        C362   1.266       .  A
O360        C372   1.271       .  A
O361        C374   1.268       .  A
C362        O367   1.270       .  A
C362        C871   1.469       .  S
C363        C793   1.468       .  S
O365        C368   1.267       .  A
O366        C368   1.266       .  A
C368        C783   1.480       .  S
O369        C374   1.263       .  A
O370        C372   1.268       .  A
C371        O373   1.270       .  A
C371       C1751   1.472       .  S
C372       C1663   1.481       .  S
C374        C749   1.482       .  S
Fe375       O391   2.038       .  S
Fe375       O381   2.042       .  S
Fe375       O388   2.041       .  S
Fe375       O380   2.040       .  S
Fe375       O386   1.961       .  S
Fe376       O379   2.058       .  S
Fe376       O383   2.078       .  S
Fe376       O387   2.079       .  S
Fe376       O392   2.061       .  S
Fe376       O386   1.983       .  S
Fe377       O395   2.070       .  S
Fe377       O382   2.076       .  S
Fe377       O389   2.086       .  S
Fe377       O378   2.083       .  S
Fe377       O386   1.989       .  S
O378        C385   1.269       .  A
O379        C393   1.270       .  A
O380        C385   1.264       .  A
O381        C384   1.266       .  A
O382        C394   1.272       .  A
O383        C396   1.267       .  A
C384        O389   1.272       .  A
C384        C915   1.471       .  S
C385        C739   1.470       .  S
O387        C390   1.271       .  A
O388        C390   1.267       .  A
C390        C705   1.481       .  S
O391        C396   1.263       .  A
O392        C394   1.269       .  A
C393        O395   1.272       .  A
C393       C1981   1.476       .  S
C394       C1861   1.486       .  S
C396        C827   1.484       .  S
Fe397       O413   2.047       .  S
Fe397       O403   2.045       .  S
Fe397       O410   2.039       .  S
Fe397       O402   2.043       .  S
Fe397       O408   1.951       .  S
Fe398       O401   2.070       .  S
Fe398       O405   2.061       .  S
Fe398       O409   2.088       .  S
Fe398       O414   2.042       .  S
Fe398       O408   1.974       .  S
Fe399       O417   2.067       .  S
Fe399       O404   2.069       .  S
Fe399       O411   2.074       .  S
Fe399       O400   2.079       .  S
Fe399       O408   1.977       .  S
O400        C407   1.270       .  A
O401        C415   1.271       .  A
O402        C407   1.266       .  A
O403        C406   1.267       .  A
O404        C416   1.270       .  A
O405        C418   1.265       .  A
C406        O411   1.270       .  A
C406        C661   1.468       .  S
C407        C695   1.472       .  S
O409        C412   1.271       .  A
O410        C412   1.266       .  A
C412        C727   1.485       .  S
O413        C418   1.265       .  A
O414        C416   1.266       .  A
C415        O417   1.271       .  A
C415       C1101   1.484       .  S
C416       C1333   1.464       .  S
C418       C1025   1.470       .  S
Fe419       O435   2.035       .  S
Fe419       O425   2.033       .  S
Fe419       O432   2.045       .  S
Fe419       O424   2.025       .  S
Fe419       O430   1.959       .  S
Fe420       O423   2.041       .  S
Fe420       O427   2.084       .  S
Fe420       O431   2.073       .  S
Fe420       O436   2.057       .  S
Fe420       O430   1.983       .  S
Fe421       O439   2.088       .  S
Fe421       O426   2.059       .  S
Fe421       O433   2.078       .  S
Fe421       O422   2.095       .  S
Fe421       O430   1.993       .  S
O422        C429   1.273       .  A
O423        C437   1.266       .  A
O424        C429   1.264       .  A
O425        C428   1.264       .  A
O426        C438   1.270       .  A
O427        C440   1.271       .  A
C428        O433   1.268       .  A
C428        C639   1.471       .  S
C429        C717   1.470       .  S
O431        C434   1.266       .  A
O432        C434   1.263       .  A
C434        C683   1.484       .  S
O435        C440   1.265       .  A
O436        C438   1.269       .  A
C437        O439   1.274       .  A
C437       C1179   1.483       .  S
C438       C1421   1.477       .  S
C440        C617   1.481       .  S
Fe441       O457   2.055       .  S
Fe441       O447   2.036       .  S
Fe441       O454   2.038       .  S
Fe441       O446   2.041       .  S
Fe441       O452   1.954       .  S
Fe442       O445   2.058       .  S
Fe442       O449   2.069       .  S
Fe442       O453   2.084       .  S
Fe442       O458   2.052       .  S
Fe442       O452   1.978       .  S
Fe443       O461   2.061       .  S
Fe443       O448   2.077       .  S
Fe443       O455   2.089       .  S
Fe443       O444   2.072       .  S
Fe443       O452   1.983       .  S
O444        C451   1.267       .  A
O445        C459   1.269       .  A
O446        C451   1.265       .  A
O447        C450   1.266       .  A
O448        C460   1.274       .  A
O449        C462   1.267       .  A
C450        O455   1.273       .  A
C450        C629   1.471       .  S
C451        C595   1.467       .  S
O453        C456   1.270       .  A
O454        C456   1.265       .  A
C456        C551   1.482       .  S
O457        C462   1.266       .  A
O458        C460   1.268       .  A
C459        O461   1.268       .  A
C459       C1299   1.477       .  S
C460       C1123   1.478       .  S
C462        C573   1.480       .  S
Fe463       O479   2.044       .  S
Fe463       O469   2.034       .  S
Fe463       O476   2.026       .  S
Fe463       O468   2.042       .  S
Fe463       O474   1.956       .  S
Fe464       O467   2.043       .  S
Fe464       O471   2.068       .  S
Fe464       O475   2.076       .  S
Fe464       O480   2.041       .  S
Fe464       O474   1.981       .  S
Fe465       O483   2.074       .  S
Fe465       O470   2.099       .  S
Fe465       O477   2.101       .  S
Fe465       O466   2.076       .  S
Fe465       O474   1.988       .  S
O466        C473   1.269       .  A
O467        C481   1.266       .  A
O468        C473   1.265       .  A
O469        C472   1.265       .  A
O470        C482   1.276       .  A
O471        C484   1.266       .  A
C472        O477   1.276       .  A
C472        C585   1.478       .  S
C473        C771   1.473       .  S
O475        C478   1.268       .  A
O476        C478   1.263       .  A
C478        C849   1.473       .  S
O479        C484   1.265       .  A
O480        C482   1.267       .  A
C481        O483   1.271       .  A
C481       C1069   1.479       .  S
C482       C1267   1.487       .  S
C484        C651   1.479       .  S
Fe485       O501   2.060       .  S
Fe485       O491   2.039       .  S
Fe485       O498   2.050       .  S
Fe485       O490   2.042       .  S
Fe485       O496   1.956       .  S
Fe486       O489   2.053       .  S
Fe486       O493   2.072       .  S
Fe486       O497   2.083       .  S
Fe486       O502   2.039       .  S
Fe486       O496   1.979       .  S
Fe487       O505   2.071       .  S
Fe487       O492   2.082       .  S
Fe487       O499   2.089       .  S
Fe487       O488   2.075       .  S
Fe487       O496   1.990       .  S
O488        C495   1.269       .  A
O489        C503   1.268       .  A
O490        C495   1.266       .  A
O491        C494   1.266       .  A
O492        C504   1.272       .  A
O493        C506   1.267       .  A
C494        O499   1.272       .  A
C494        C761   1.475       .  S
C495        C563   1.466       .  S
O497        C500   1.270       .  A
O498        C500   1.266       .  A
C500        C541   1.488       .  S
O501        C506   1.268       .  A
O502        C504   1.266       .  A
C503        O505   1.272       .  A
C503       C1245   1.479       .  S
C504       C1091   1.475       .  S
C506        C893   1.487       .  S
Fe507       O523   2.039       .  S
Fe507       O513   2.043       .  S
Fe507       O520   2.040       .  S
Fe507       O512   2.041       .  S
Fe507       O518   1.963       .  S
Fe508       O511   2.046       .  S
Fe508       O515   2.073       .  S
Fe508       O519   2.068       .  S
Fe508       O524   2.053       .  S
Fe508       O518   1.988       .  S
Fe509       O527   2.081       .  S
Fe509       O514   2.081       .  S
Fe509       O521   2.090       .  S
Fe509       O510   2.090       .  S
Fe509       O518   1.987       .  S
O510        C517   1.271       .  A
O511        C525   1.265       .  A
O512        C517   1.264       .  A
O513        C516   1.266       .  A
O514        C526   1.275       .  A
O515        C528   1.268       .  A
C516        O521   1.273       .  A
C516        C969   1.472       .  S
C517        C529   1.477       .  S
O519        C522   1.266       .  A
O520        C522   1.264       .  A
C522        C607   1.480       .  S
O523        C528   1.265       .  A
O524        C526   1.270       .  A
C525        O527   1.272       .  A
C525       C1453   1.483       .  S
C526       C1519   1.483       .  S
C528        C673   1.476       .  S
C529        C530   1.400       .  A
C529        C534   1.399       .  A
C530        C531   1.404       .  A
C530        H543   1.083       .  S
C531        C532   1.418       .  A
C531        H544   1.077       .  S
C532        C538   1.434       .  A
C532        C533   1.423       .  A
C533        C535   1.398       .  A
C533        C534   1.401       .  A
C534        H545   1.085       .  S
C535        C536   1.386       .  A
C535        H546   1.084       .  S
C536        C537   1.399       .  A
C536        H547   1.084       .  S
C537        C538   1.422       .  A
C537        C542   1.401       .  A
C538        C539   1.417       .  A
C539        C540   1.404       .  A
C539        H548   1.077       .  S
C540        C541   1.403       .  A
C540        H549   1.083       .  S
C541        C542   1.403       .  A
C542        H550   1.085       .  S
C551        C552   1.402       .  A
C551        C556   1.401       .  A
C552        C553   1.403       .  A
C552        H565   1.083       .  S
C553        C554   1.418       .  A
C553        H566   1.079       .  S
C554        C560   1.431       .  A
C554        C555   1.422       .  A
C555        C557   1.398       .  A
C555        C556   1.397       .  A
C556        H567   1.085       .  S
C557        C558   1.383       .  A
C557        H568   1.084       .  S
C558        C559   1.396       .  A
C558        H569   1.084       .  S
C559        C560   1.423       .  A
C559        C564   1.397       .  A
C560        C561   1.418       .  A
C561        C562   1.402       .  A
C561        H570   1.079       .  S
C562        C563   1.399       .  A
C562        H571   1.083       .  S
C563        C564   1.395       .  A
C564        H572   1.086       .  S
C573        C574   1.401       .  A
C573        C578   1.403       .  A
C574        C575   1.391       .  A
C574        H587   1.084       .  S
C575        C576   1.412       .  A
C575        H588   1.078       .  S
C576        C582   1.428       .  A
C576        C577   1.423       .  A
C577        C579   1.401       .  A
C577        C578   1.411       .  A
C578        H589   1.084       .  S
C579        C580   1.394       .  A
C579        H590   1.084       .  S
C580        C581   1.401       .  A
C580        H591   1.084       .  S
C581        C582   1.422       .  A
C581        C586   1.411       .  A
C582        C583   1.413       .  A
C583        C584   1.392       .  A
C583        H592   1.078       .  S
C584        C585   1.401       .  A
C584        H593   1.084       .  S
C585        C586   1.402       .  A
C586        H594   1.085       .  S
C595        C596   1.399       .  A
C595        C600   1.396       .  A
C596        C597   1.402       .  A
C596        H609   1.083       .  S
C597        C598   1.418       .  A
C597        H610   1.078       .  S
C598        C604   1.430       .  A
C598        C599   1.423       .  A
C599        C601   1.396       .  A
C599        C600   1.396       .  A
C600        H611   1.086       .  S
C601        C602   1.383       .  A
C601        H612   1.084       .  S
C602        C603   1.397       .  A
C602        H613   1.084       .  S
C603        C604   1.422       .  A
C603        C608   1.395       .  A
C604        C605   1.417       .  A
C605        C606   1.402       .  A
C605        H614   1.078       .  S
C606        C607   1.402       .  A
C606        H615   1.083       .  S
C607        C608   1.400       .  A
C608        H616   1.085       .  S
C617        C618   1.402       .  A
C617        C622   1.403       .  A
C618        C619   1.387       .  A
C618        H631   1.084       .  S
C619        C620   1.410       .  A
C619        H632   1.078       .  S
C620        C626   1.425       .  A
C620        C621   1.423       .  A
C621        C623   1.401       .  A
C621        C622   1.411       .  A
C622        H633   1.084       .  S
C623        C624   1.394       .  A
C623        H634   1.084       .  S
C624        C625   1.401       .  A
C624        H635   1.083       .  S
C625        C626   1.422       .  A
C625        C630   1.409       .  A
C626        C627   1.413       .  A
C627        C628   1.388       .  A
C627        H636   1.078       .  S
C628        C629   1.398       .  A
C628        H637   1.084       .  S
C629        C630   1.402       .  A
C630        H638   1.084       .  S
C639        C640   1.400       .  A
C639        C644   1.396       .  A
C640        C641   1.405       .  A
C640        H653   1.083       .  S
C641        C642   1.419       .  A
C641        H654   1.078       .  S
C642        C648   1.431       .  A
C642        C643   1.423       .  A
C643        C645   1.396       .  A
C643        C644   1.392       .  A
C644        H655   1.085       .  S
C645        C646   1.380       .  A
C645        H656   1.084       .  S
C646        C647   1.396       .  A
C646        H657   1.084       .  S
C647        C648   1.421       .  A
C647        C652   1.392       .  A
C648        C649   1.418       .  A
C649        C650   1.405       .  A
C649        H658   1.078       .  S
C650        C651   1.403       .  A
C650        H659   1.083       .  S
C651        C652   1.399       .  A
C652        H660   1.085       .  S
C661        C662   1.397       .  A
C661        C666   1.402       .  A
C662        C663   1.390       .  A
C662        H675   1.084       .  S
C663        C664   1.415       .  A
C663        H676   1.076       .  S
C664        C670   1.424       .  A
C664        C665   1.420       .  A
C665        C667   1.401       .  A
C665        C666   1.405       .  A
C666        H677   1.085       .  S
C667        C668   1.393       .  A
C667        H678   1.084       .  S
C668        C669   1.400       .  A
C668        H679   1.083       .  S
C669        C670   1.424       .  A
C669        C674   1.409       .  A
C670        C671   1.410       .  A
C671        C672   1.386       .  A
C671        H680   1.076       .  S
C672        C673   1.401       .  A
C672        H681   1.083       .  S
C673        C674   1.402       .  A
C674        H682   1.084       .  S
C683        C684   1.402       .  A
C683        C688   1.402       .  A
C684        C685   1.403       .  A
C684        H697   1.083       .  S
C685        C686   1.417       .  A
C685        H698   1.078       .  S
C686        C692   1.432       .  A
C686        C687   1.422       .  A
C687        C689   1.398       .  A
C687        C688   1.399       .  A
C688        H699   1.085       .  S
C689        C690   1.384       .  A
C689        H700   1.084       .  S
C690        C691   1.397       .  A
C690        H701   1.084       .  S
C691        C692   1.423       .  A
C691        C696   1.397       .  A
C692        C693   1.419       .  A
C693        C694   1.404       .  A
C693        H702   1.078       .  S
C694        C695   1.399       .  A
C694        H703   1.083       .  S
C695        C696   1.397       .  A
C696        H704   1.086       .  S
C705        C706   1.402       .  A
C705        C710   1.405       .  A
C706        C707   1.388       .  A
C706        H719   1.083       .  S
C707        C708   1.411       .  A
C707        H720   1.077       .  S
C708        C714   1.423       .  A
C708        C709   1.420       .  A
C709        C711   1.402       .  A
C709        C710   1.409       .  A
C710        H721   1.084       .  S
C711        C712   1.395       .  A
C711        H722   1.083       .  S
C712        C713   1.401       .  A
C712        H723   1.084       .  S
C713        C714   1.422       .  A
C713        C718   1.410       .  A
C714        C715   1.411       .  A
C715        C716   1.388       .  A
C715        H724   1.077       .  S
C716        C717   1.400       .  A
C716        H725   1.085       .  S
C717        C718   1.402       .  A
C718        H726   1.084       .  S
C727        C728   1.402       .  A
C727        C732   1.407       .  A
C728        C729   1.387       .  A
C728        H741   1.083       .  S
C729        C730   1.410       .  A
C729        H742   1.077       .  S
C730        C736   1.424       .  A
C730        C731   1.421       .  A
C731        C733   1.403       .  A
C731        C732   1.413       .  A
C732        H743   1.084       .  S
C733        C734   1.398       .  A
C733        H744   1.084       .  S
C734        C735   1.402       .  A
C734        H745   1.083       .  S
C735        C736   1.421       .  A
C735        C740   1.413       .  A
C736        C737   1.411       .  A
C737        C738   1.388       .  A
C737        H746   1.077       .  S
C738        C739   1.397       .  A
C738        H747   1.085       .  S
C739        C740   1.404       .  A
C740        H748   1.084       .  S
C749        C750   1.402       .  A
C749        C754   1.401       .  A
C750        C751   1.406       .  A
C750        H763   1.083       .  S
C751        C752   1.420       .  A
C751        H764   1.078       .  S
C752        C758   1.433       .  A
C752        C753   1.421       .  A
C753        C755   1.397       .  A
C753        C754   1.394       .  A
C754        H765   1.085       .  S
C755        C756   1.382       .  A
C755        H766   1.084       .  S
C756        C757   1.396       .  A
C756        H767   1.084       .  S
C757        C758   1.424       .  A
C757        C762   1.397       .  A
C758        C759   1.417       .  A
C759        C760   1.404       .  A
C759        H768   1.078       .  S
C760        C761   1.401       .  A
C760        H769   1.083       .  S
C761        C762   1.397       .  A
C762        H770   1.086       .  S
C771        C772   1.400       .  A
C771        C776   1.398       .  A
C772        C773   1.402       .  A
C772        H785   1.083       .  S
C773        C774   1.417       .  A
C773        H786   1.078       .  S
C774        C780   1.431       .  A
C774        C775   1.423       .  A
C775        C777   1.397       .  A
C775        C776   1.397       .  A
C776        H787   1.085       .  S
C777        C778   1.383       .  A
C777        H788   1.084       .  S
C778        C779   1.397       .  A
C778        H789   1.084       .  S
C779        C780   1.421       .  A
C779        C784   1.395       .  A
C780        C781   1.418       .  A
C781        C782   1.403       .  A
C781        H790   1.078       .  S
C782        C783   1.402       .  A
C782        H791   1.083       .  S
C783        C784   1.400       .  A
C784        H792   1.085       .  S
C793        C794   1.399       .  A
C793        C798   1.396       .  A
C794        C795   1.401       .  A
C794        H807   1.083       .  S
C795        C796   1.417       .  A
C795        H808   1.078       .  S
C796        C802   1.429       .  A
C796        C797   1.423       .  A
C797        C799   1.396       .  A
C797        C798   1.394       .  A
C798        H809   1.086       .  S
C799        C800   1.382       .  A
C799        H810   1.084       .  S
C800        C801   1.397       .  A
C800        H811   1.084       .  S
C801        C802   1.421       .  A
C801        C806   1.393       .  A
C802        C803   1.418       .  A
C803        C804   1.402       .  A
C803        H812   1.078       .  S
C804        C805   1.401       .  A
C804        H813   1.083       .  S
C805        C806   1.399       .  A
C806        H814   1.085       .  S
C815        C816   1.398       .  A
C815        C820   1.404       .  A
C816        C817   1.386       .  A
C816        H829   1.084       .  S
C817        C818   1.410       .  A
C817        H830   1.078       .  S
C818        C824   1.421       .  A
C818        C819   1.421       .  A
C819        C821   1.403       .  A
C819        C820   1.413       .  A
C820        H831   1.084       .  S
C821        C822   1.399       .  A
C821        H832   1.083       .  S
C822        C823   1.403       .  A
C822        H833   1.084       .  S
C823        C824   1.420       .  A
C823        C828   1.413       .  A
C824        C825   1.409       .  A
C825        C826   1.386       .  A
C825        H834   1.078       .  S
C826        C827   1.403       .  A
C826        H835   1.083       .  S
C827        C828   1.408       .  A
C828        H836   1.084       .  S
C837        C838   1.399       .  A
C837        C842   1.395       .  A
C838        C839   1.398       .  A
C838        H851   1.083       .  S
C839        C840   1.415       .  A
C839        H852   1.077       .  S
C840        C846   1.427       .  A
C840        C841   1.424       .  A
C841        C843   1.396       .  A
C841        C842   1.395       .  A
C842        H853   1.086       .  S
C843        C844   1.382       .  A
C843        H854   1.084       .  S
C844        C845   1.397       .  A
C844        H855   1.084       .  S
C845        C846   1.420       .  A
C845        C850   1.392       .  A
C846        C847   1.419       .  A
C847        C848   1.402       .  A
C847        H856   1.077       .  S
C848        C849   1.400       .  A
C848        H857   1.083       .  S
C849        C850   1.399       .  A
C850        H858   1.085       .  S
C859        C860   1.400       .  A
C859        C864   1.402       .  A
C860        C861   1.402       .  A
C860        H873   1.083       .  S
C861        C862   1.418       .  A
C861        H874   1.078       .  S
C862        C868   1.429       .  A
C862        C863   1.420       .  A
C863        C865   1.399       .  A
C863        C864   1.396       .  A
C864        H875   1.085       .  S
C865        C866   1.385       .  A
C865        H876   1.084       .  S
C866        C867   1.397       .  A
C866        H877   1.084       .  S
C867        C868   1.423       .  A
C867        C872   1.398       .  A
C868        C869   1.416       .  A
C869        C870   1.399       .  A
C869        H878   1.078       .  S
C870        C871   1.399       .  A
C870        H879   1.083       .  S
C871        C872   1.398       .  A
C872        H880   1.086       .  S
C881        C882   1.401       .  A
C881        C886   1.400       .  A
C882        C883   1.406       .  A
C882        H895   1.083       .  S
C883        C884   1.419       .  A
C883        H896   1.078       .  S
C884        C890   1.436       .  A
C884        C885   1.423       .  A
C885        C887   1.398       .  A
C885        C886   1.400       .  A
C886        H897   1.085       .  S
C887        C888   1.385       .  A
C887        H898   1.084       .  S
C888        C889   1.398       .  A
C888        H899   1.084       .  S
C889        C890   1.422       .  A
C889        C894   1.400       .  A
C890        C891   1.418       .  A
C891        C892   1.406       .  A
C891        H900   1.078       .  S
C892        C893   1.403       .  A
C892        H901   1.083       .  S
C893        C894   1.401       .  A
C894        H902   1.085       .  S
C903        C904   1.400       .  A
C903        C908   1.402       .  A
C904        C905   1.400       .  A
C904        H917   1.083       .  S
C905        C906   1.417       .  A
C905        H918   1.078       .  S
C906        C912   1.429       .  A
C906        C907   1.421       .  A
C907        C909   1.399       .  A
C907        C908   1.400       .  A
C908        H919   1.085       .  S
C909        C910   1.387       .  A
C909        H920   1.084       .  S
C910        C911   1.398       .  A
C910        H921   1.084       .  S
C911        C912   1.422       .  A
C911        C916   1.401       .  A
C912        C913   1.416       .  A
C913        C914   1.399       .  A
C913        H922   1.078       .  S
C914        C915   1.398       .  A
C914        H923   1.083       .  S
C915        C916   1.399       .  A
C916        H924   1.085       .  S
C925        C926   1.395       .  A
C925        C930   1.401       .  A
C926        C927   1.387       .  A
C926        H939   1.084       .  S
C927        C928   1.412       .  A
C927        H940   1.077       .  S
C928        C934   1.421       .  A
C928        C929   1.421       .  A
C929        C931   1.402       .  A
C929        C930   1.408       .  A
C930        H941   1.084       .  S
C931        C932   1.395       .  A
C931        H942   1.084       .  S
C932        C933   1.402       .  A
C932        H943   1.084       .  S
C933        C934   1.421       .  A
C933        C938   1.409       .  A
C934        C935   1.410       .  A
C935        C936   1.386       .  A
C935        H944   1.077       .  S
C936        C937   1.401       .  A
C936        H945   1.083       .  S
C937        C938   1.404       .  A
C938        H946   1.084       .  S
C947        C948   1.400       .  A
C947        C952   1.403       .  A
C948        C949   1.390       .  A
C948        H961   1.084       .  S
C949        C950   1.413       .  A
C949        H962   1.077       .  S
C950        C956   1.427       .  A
C950        C951   1.422       .  A
C951        C953   1.401       .  A
C951        C952   1.411       .  A
C952        H963   1.084       .  S
C953        C954   1.395       .  A
C953        H964   1.083       .  S
C954        C955   1.401       .  A
C954        H965   1.084       .  S
C955        C956   1.423       .  A
C955        C960   1.413       .  A
C956        C957   1.411       .  A
C957        C958   1.389       .  A
C957        H966   1.077       .  S
C958        C959   1.403       .  A
C958        H967   1.084       .  S
C959        C960   1.405       .  A
C960        H968   1.084       .  S
C969        C970   1.398       .  A
C969        C974   1.402       .  A
C970        C971   1.391       .  A
C970        H983   1.083       .  S
C971        C972   1.414       .  A
C971        H984   1.078       .  S
C972        C978   1.428       .  A
C972        C973   1.422       .  A
C973        C975   1.401       .  A
C973        C974   1.411       .  A
C974        H985   1.084       .  S
C975        C976   1.395       .  A
C975        H986   1.084       .  S
C976        C977   1.401       .  A
C976        H987   1.084       .  S
C977        C978   1.423       .  A
C977        C982   1.413       .  A
C978        C979   1.411       .  A
C979        C980   1.389       .  A
C979        H988   1.078       .  S
C980        C981   1.402       .  A
C980        H989   1.084       .  S
C981        C982   1.404       .  A
C982        H990   1.084       .  S
C991        C992   1.401       .  A
C991        C996   1.402       .  A
C992        C993   1.400       .  A
C992       H1005   1.083       .  S
C993        C994   1.417       .  A
C993       H1006   1.077       .  S
C994       C1000   1.430       .  A
C994        C995   1.422       .  A
C995        C997   1.398       .  A
C995        C996   1.399       .  A
C996       H1007   1.085       .  S
C997        C998   1.385       .  A
C997       H1008   1.084       .  S
C998        C999   1.398       .  A
C998       H1009   1.084       .  S
C999       C1000   1.422       .  A
C999       C1004   1.398       .  A
C1000      C1001   1.417       .  A
C1001      C1002   1.400       .  A
C1001      H1010   1.077       .  S
C1002      C1003   1.398       .  A
C1002      H1011   1.083       .  S
C1003      C1004   1.399       .  A
C1004      H1012   1.086       .  S
C1013      C1014   1.398       .  A
C1013      C1018   1.397       .  A
C1014      C1015   1.399       .  A
C1014      H1027   1.083       .  S
C1015      C1016   1.416       .  A
C1015      H1028   1.078       .  S
C1016      C1022   1.428       .  A
C1016      C1017   1.423       .  A
C1017      C1019   1.397       .  A
C1017      C1018   1.396       .  A
C1018      H1029   1.086       .  S
C1019      C1020   1.384       .  A
C1019      H1030   1.084       .  S
C1020      C1021   1.398       .  A
C1020      H1031   1.085       .  S
C1021      C1022   1.421       .  A
C1021      C1026   1.394       .  A
C1022      C1023   1.419       .  A
C1023      C1024   1.401       .  A
C1023      H1032   1.078       .  S
C1024      C1025   1.398       .  A
C1024      H1033   1.083       .  S
C1025      C1026   1.399       .  A
C1026      H1034   1.085       .  S
C1035      C1036   1.401       .  A
C1035      C1040   1.404       .  A
C1036      C1037   1.390       .  A
C1036      H1049   1.084       .  S
C1037      C1038   1.412       .  A
C1037      H1050   1.076       .  S
C1038      C1044   1.426       .  A
C1038      C1039   1.422       .  A
C1039      C1041   1.401       .  A
C1039      C1040   1.410       .  A
C1040      H1051   1.084       .  S
C1041      C1042   1.395       .  A
C1041      H1052   1.084       .  S
C1042      C1043   1.401       .  A
C1042      H1053   1.084       .  S
C1043      C1044   1.422       .  A
C1043      C1048   1.411       .  A
C1044      C1045   1.412       .  A
C1045      C1046   1.390       .  A
C1045      H1054   1.077       .  S
C1046      C1047   1.399       .  A
C1046      H1055   1.084       .  S
C1047      C1048   1.402       .  A
C1048      H1056   1.084       .  S
C1057      C1058   1.403       .  A
C1057      C1062   1.399       .  A
C1058      C1059   1.393       .  A
C1058      H1071   1.084       .  S
C1059      C1060   1.412       .  A
C1059      H1072   1.076       .  S
C1060      C1066   1.428       .  A
C1060      C1061   1.425       .  A
C1061      C1063   1.398       .  A
C1061      C1062   1.405       .  A
C1062      H1073   1.084       .  S
C1063      C1064   1.387       .  A
C1063      H1074   1.084       .  S
C1064      C1065   1.399       .  A
C1064      H1075   1.084       .  S
C1065      C1066   1.419       .  A
C1065      C1070   1.398       .  A
C1066      C1067   1.418       .  A
C1067      C1068   1.398       .  A
C1067      H1076   1.076       .  S
C1068      C1069   1.399       .  A
C1068      H1077   1.083       .  S
C1069      C1070   1.403       .  A
C1070      H1078   1.084       .  S
C1079      C1080   1.399       .  A
C1079      C1084   1.403       .  A
C1080      C1081   1.393       .  A
C1080      H1093   1.083       .  S
C1081      C1082   1.416       .  A
C1081      H1094   1.077       .  S
C1082      C1088   1.426       .  A
C1082      C1083   1.420       .  A
C1083      C1085   1.400       .  A
C1083      C1084   1.402       .  A
C1084      H1095   1.085       .  S
C1085      C1086   1.390       .  A
C1085      H1096   1.084       .  S
C1086      C1087   1.399       .  A
C1086      H1097   1.084       .  S
C1087      C1088   1.424       .  A
C1087      C1092   1.406       .  A
C1088      C1089   1.411       .  A
C1089      C1090   1.390       .  A
C1089      H1098   1.077       .  S
C1090      C1091   1.401       .  A
C1090      H1099   1.084       .  S
C1091      C1092   1.400       .  A
C1092      H1100   1.084       .  S
C1101      C1102   1.401       .  A
C1101      C1106   1.405       .  A
C1102      C1103   1.396       .  A
C1102      H1115   1.083       .  S
C1103      C1104   1.415       .  A
C1103      H1116   1.077       .  S
C1104      C1110   1.429       .  A
C1104      C1105   1.421       .  A
C1105      C1107   1.400       .  A
C1105      C1106   1.406       .  A
C1106      H1117   1.084       .  S
C1107      C1108   1.391       .  A
C1107      H1118   1.084       .  S
C1108      C1109   1.399       .  A
C1108      H1119   1.084       .  S
C1109      C1110   1.424       .  A
C1109      C1114   1.407       .  A
C1110      C1111   1.414       .  A
C1111      C1112   1.394       .  A
C1111      H1120   1.077       .  S
C1112      C1113   1.400       .  A
C1112      H1121   1.084       .  S
C1113      C1114   1.400       .  A
C1114      H1122   1.084       .  S
C1123      C1124   1.398       .  A
C1123      C1128   1.406       .  A
C1124      C1125   1.391       .  A
C1124      H1137   1.083       .  S
C1125      C1126   1.415       .  A
C1125      H1138   1.075       .  S
C1126      C1132   1.425       .  A
C1126      C1127   1.420       .  A
C1127      C1129   1.402       .  A
C1127      C1128   1.406       .  A
C1128      H1139   1.084       .  S
C1129      C1130   1.393       .  A
C1129      H1140   1.084       .  S
C1130      C1131   1.400       .  A
C1130      H1141   1.084       .  S
C1131      C1132   1.423       .  A
C1131      C1136   1.410       .  A
C1132      C1133   1.409       .  A
C1133      C1134   1.386       .  A
C1133      H1142   1.075       .  S
C1134      C1135   1.403       .  A
C1134      H1143   1.083       .  S
C1135      C1136   1.403       .  A
C1136      H1144   1.084       .  S
C1145      C1146   1.399       .  A
C1145      C1150   1.399       .  A
C1146      C1147   1.405       .  A
C1146      H1159   1.083       .  S
C1147      C1148   1.420       .  A
C1147      H1160   1.078       .  S
C1148      C1154   1.431       .  A
C1148      C1149   1.421       .  A
C1149      C1151   1.397       .  A
C1149      C1150   1.394       .  A
C1150      H1161   1.086       .  S
C1151      C1152   1.382       .  A
C1151      H1162   1.084       .  S
C1152      C1153   1.396       .  A
C1152      H1163   1.084       .  S
C1153      C1154   1.423       .  A
C1153      C1158   1.397       .  A
C1154      C1155   1.415       .  A
C1155      C1156   1.401       .  A
C1155      H1164   1.078       .  S
C1156      C1157   1.403       .  A
C1156      H1165   1.083       .  S
C1157      C1158   1.399       .  A
C1158      H1166   1.085       .  S
C1167      C1168   1.399       .  A
C1167      C1172   1.406       .  A
C1168      C1169   1.399       .  A
C1168      H1181   1.083       .  S
C1169      C1170   1.419       .  A
C1169      H1182   1.077       .  S
C1170      C1176   1.429       .  A
C1170      C1171   1.419       .  A
C1171      C1173   1.401       .  A
C1171      C1172   1.401       .  A
C1172      H1183   1.084       .  S
C1173      C1174   1.390       .  A
C1173      H1184   1.084       .  S
C1174      C1175   1.399       .  A
C1174      H1185   1.084       .  S
C1175      C1176   1.425       .  A
C1175      C1180   1.409       .  A
C1176      C1177   1.410       .  A
C1177      C1178   1.391       .  A
C1177      H1186   1.077       .  S
C1178      C1179   1.404       .  A
C1178      H1187   1.083       .  S
C1179      C1180   1.401       .  A
C1180      H1188   1.085       .  S
C1189      C1190   1.400       .  A
C1189      C1194   1.403       .  A
C1190      C1191   1.396       .  A
C1190      H1203   1.083       .  S
C1191      C1192   1.416       .  A
C1191      H1204   1.077       .  S
C1192      C1198   1.428       .  A
C1192      C1193   1.421       .  A
C1193      C1195   1.400       .  A
C1193      C1194   1.401       .  A
C1194      H1205   1.084       .  S
C1195      C1196   1.388       .  A
C1195      H1206   1.084       .  S
C1196      C1197   1.398       .  A
C1196      H1207   1.084       .  S
C1197      C1198   1.424       .  A
C1197      C1202   1.404       .  A
C1198      C1199   1.413       .  A
C1199      C1200   1.393       .  A
C1199      H1208   1.077       .  S
C1200      C1201   1.400       .  A
C1200      H1209   1.084       .  S
C1201      C1202   1.398       .  A
C1202      H1210   1.085       .  S
C1211      C1212   1.397       .  A
C1211      C1216   1.395       .  A
C1212      C1213   1.398       .  A
C1212      H1225   1.083       .  S
C1213      C1214   1.416       .  A
C1213      H1226   1.078       .  S
C1214      C1220   1.428       .  A
C1214      C1215   1.424       .  A
C1215      C1217   1.397       .  A
C1215      C1216   1.398       .  A
C1216      H1227   1.086       .  S
C1217      C1218   1.385       .  A
C1217      H1228   1.084       .  S
C1218      C1219   1.399       .  A
C1218      H1229   1.084       .  S
C1219      C1220   1.421       .  A
C1219      C1224   1.396       .  A
C1220      C1221   1.418       .  A
C1221      C1222   1.400       .  A
C1221      H1230   1.078       .  S
C1222      C1223   1.399       .  A
C1222      H1231   1.083       .  S
C1223      C1224   1.401       .  A
C1224      H1232   1.085       .  S
C1233      C1234   1.400       .  A
C1233      C1238   1.398       .  A
C1234      C1235   1.390       .  A
C1234      H1247   1.084       .  S
C1235      C1236   1.411       .  A
C1235      H1248   1.076       .  S
C1236      C1242   1.427       .  A
C1236      C1237   1.425       .  A
C1237      C1239   1.399       .  A
C1237      C1238   1.407       .  A
C1238      H1249   1.084       .  S
C1239      C1240   1.390       .  A
C1239      H1250   1.084       .  S
C1240      C1241   1.400       .  A
C1240      H1251   1.084       .  S
C1241      C1242   1.420       .  A
C1241      C1246   1.402       .  A
C1242      C1243   1.417       .  A
C1243      C1244   1.396       .  A
C1243      H1252   1.076       .  S
C1244      C1245   1.399       .  A
C1244      H1253   1.083       .  S
C1245      C1246   1.404       .  A
C1246      H1254   1.084       .  S
C1255      C1256   1.399       .  A
C1255      C1260   1.406       .  A
C1256      C1257   1.397       .  A
C1256      H1269   1.083       .  S
C1257      C1258   1.417       .  A
C1257      H1270   1.076       .  S
C1258      C1264   1.431       .  A
C1258      C1259   1.420       .  A
C1259      C1261   1.401       .  A
C1259      C1260   1.407       .  A
C1260      H1271   1.084       .  S
C1261      C1262   1.393       .  A
C1261      H1272   1.084       .  S
C1262      C1263   1.400       .  A
C1262      H1273   1.084       .  S
C1263      C1264   1.424       .  A
C1263      C1268   1.412       .  A
C1264      C1265   1.411       .  A
C1265      C1266   1.392       .  A
C1265      H1274   1.075       .  S
C1266      C1267   1.404       .  A
C1266      H1275   1.084       .  S
C1267      C1268   1.403       .  A
C1268      H1276   1.084       .  S
C1277      C1278   1.403       .  A
C1277      C1282   1.400       .  A
C1278      C1279   1.402       .  A
C1278      H1291   1.083       .  S
C1279      C1280   1.416       .  A
C1279      H1292   1.078       .  S
C1280      C1286   1.432       .  A
C1280      C1281   1.422       .  A
C1281      C1283   1.397       .  A
C1281      C1282   1.397       .  A
C1282      H1293   1.084       .  S
C1283      C1284   1.383       .  A
C1283      H1294   1.084       .  S
C1284      C1285   1.397       .  A
C1284      H1295   1.084       .  S
C1285      C1286   1.421       .  A
C1285      C1290   1.394       .  A
C1286      C1287   1.419       .  A
C1287      C1288   1.405       .  A
C1287      H1296   1.078       .  S
C1288      C1289   1.400       .  A
C1288      H1297   1.083       .  S
C1289      C1290   1.401       .  A
C1290      H1298   1.085       .  S
C1299      C1300   1.400       .  A
C1299      C1304   1.401       .  A
C1300      C1301   1.397       .  A
C1300      H1313   1.083       .  S
C1301      C1302   1.416       .  A
C1301      H1314   1.078       .  S
C1302      C1308   1.429       .  A
C1302      C1303   1.421       .  A
C1303      C1305   1.399       .  A
C1303      C1304   1.400       .  A
C1304      H1315   1.085       .  S
C1305      C1306   1.387       .  A
C1305      H1316   1.084       .  S
C1306      C1307   1.398       .  A
C1306      H1317   1.084       .  S
C1307      C1308   1.423       .  A
C1307      C1312   1.403       .  A
C1308      C1309   1.413       .  A
C1309      C1310   1.395       .  A
C1309      H1318   1.078       .  S
C1310      C1311   1.403       .  A
C1310      H1319   1.083       .  S
C1311      C1312   1.400       .  A
C1312      H1320   1.085       .  S
C1321      C1322   1.400       .  A
C1321      C1326   1.401       .  A
C1322      C1323   1.394       .  A
C1322      H1335   1.084       .  S
C1323      C1324   1.415       .  A
C1323      H1336   1.076       .  S
C1324      C1330   1.424       .  A
C1324      C1325   1.421       .  A
C1325      C1327   1.399       .  A
C1325      C1326   1.398       .  A
C1326      H1337   1.084       .  S
C1327      C1328   1.387       .  A
C1327      H1338   1.084       .  S
C1328      C1329   1.398       .  A
C1328      H1339   1.084       .  S
C1329      C1330   1.424       .  A
C1329      C1334   1.400       .  A
C1330      C1331   1.414       .  A
C1331      C1332   1.392       .  A
C1331      H1340   1.076       .  S
C1332      C1333   1.398       .  A
C1332      H1341   1.084       .  S
C1333      C1334   1.396       .  A
C1334      H1342   1.085       .  S
C1343      C1344   1.397       .  A
C1343      C1348   1.404       .  A
C1344      C1345   1.388       .  A
C1344      H1357   1.084       .  S
C1345      C1346   1.411       .  A
C1345      H1358   1.078       .  S
C1346      C1352   1.424       .  A
C1346      C1347   1.421       .  A
C1347      C1349   1.402       .  A
C1347      C1348   1.412       .  A
C1348      H1359   1.084       .  S
C1349      C1350   1.397       .  A
C1349      H1360   1.084       .  S
C1350      C1351   1.403       .  A
C1350      H1361   1.083       .  S
C1351      C1352   1.421       .  A
C1351      C1356   1.412       .  A
C1352      C1353   1.410       .  A
C1353      C1354   1.387       .  A
C1353      H1362   1.078       .  S
C1354      C1355   1.402       .  A
C1354      H1363   1.083       .  S
C1355      C1356   1.407       .  A
C1356      H1364   1.084       .  S
C1365      C1366   1.401       .  A
C1365      C1370   1.401       .  A
C1366      C1367   1.401       .  A
C1366      H1379   1.083       .  S
C1367      C1368   1.417       .  A
C1367      H1380   1.078       .  S
C1368      C1374   1.429       .  A
C1368      C1369   1.421       .  A
C1369      C1371   1.398       .  A
C1369      C1370   1.395       .  A
C1370      H1381   1.085       .  S
C1371      C1372   1.383       .  A
C1371      H1382   1.084       .  S
C1372      C1373   1.396       .  A
C1372      H1383   1.084       .  S
C1373      C1374   1.424       .  A
C1373      C1378   1.396       .  A
C1374      C1375   1.417       .  A
C1375      C1376   1.400       .  A
C1375      H1384   1.078       .  S
C1376      C1377   1.398       .  A
C1376      H1385   1.084       .  S
C1377      C1378   1.394       .  A
C1378      H1386   1.086       .  S
C1387      C1388   1.399       .  A
C1387      C1392   1.404       .  A
C1388      C1389   1.392       .  A
C1388      H1401   1.083       .  S
C1389      C1390   1.414       .  A
C1389      H1402   1.079       .  S
C1390      C1396   1.427       .  A
C1390      C1391   1.422       .  A
C1391      C1393   1.400       .  A
C1391      C1392   1.405       .  A
C1392      H1403   1.085       .  S
C1393      C1394   1.391       .  A
C1393      H1404   1.084       .  S
C1394      C1395   1.400       .  A
C1394      H1405   1.084       .  S
C1395      C1396   1.422       .  A
C1395      C1400   1.405       .  A
C1396      C1397   1.413       .  A
C1397      C1398   1.391       .  A
C1397      H1406   1.079       .  S
C1398      C1399   1.400       .  A
C1398      H1407   1.083       .  S
C1399      C1400   1.402       .  A
C1400      H1408   1.085       .  S
C1409      C1410   1.399       .  A
C1409      C1414   1.400       .  A
C1410      C1411   1.391       .  A
C1410      H1423   1.084       .  S
C1411      C1412   1.413       .  A
C1411      H1424   1.076       .  S
C1412      C1418   1.425       .  A
C1412      C1413   1.423       .  A
C1413      C1415   1.399       .  A
C1413      C1414   1.402       .  A
C1414      H1425   1.084       .  S
C1415      C1416   1.389       .  A
C1415      H1426   1.084       .  S
C1416      C1417   1.399       .  A
C1416      H1427   1.084       .  S
C1417      C1418   1.421       .  A
C1417      C1422   1.402       .  A
C1418      C1419   1.414       .  A
C1419      C1420   1.392       .  A
C1419      H1428   1.076       .  S
C1420      C1421   1.400       .  A
C1420      H1429   1.083       .  S
C1421      C1422   1.402       .  A
C1422      H1430   1.084       .  S
C1431      C1432   1.400       .  A
C1431      C1436   1.402       .  A
C1432      C1433   1.401       .  A
C1432      H1445   1.083       .  S
C1433      C1434   1.417       .  A
C1433      H1446   1.077       .  S
C1434      C1440   1.430       .  A
C1434      C1435   1.422       .  A
C1435      C1437   1.399       .  A
C1435      C1436   1.399       .  A
C1436      H1447   1.085       .  S
C1437      C1438   1.386       .  A
C1437      H1448   1.084       .  S
C1438      C1439   1.398       .  A
C1438      H1449   1.084       .  S
C1439      C1440   1.423       .  A
C1439      C1444   1.399       .  A
C1440      C1441   1.417       .  A
C1441      C1442   1.400       .  A
C1441      H1450   1.077       .  S
C1442      C1443   1.398       .  A
C1442      H1451   1.083       .  S
C1443      C1444   1.397       .  A
C1444      H1452   1.085       .  S
C1453      C1454   1.399       .  A
C1453      C1458   1.406       .  A
C1454      C1455   1.396       .  A
C1454      H1467   1.083       .  S
C1455      C1456   1.416       .  A
C1455      H1468   1.076       .  S
C1456      C1462   1.428       .  A
C1456      C1457   1.420       .  A
C1457      C1459   1.401       .  A
C1457      C1458   1.404       .  A
C1458      H1469   1.084       .  S
C1459      C1460   1.391       .  A
C1459      H1470   1.084       .  S
C1460      C1461   1.399       .  A
C1460      H1471   1.084       .  S
C1461      C1462   1.424       .  A
C1461      C1466   1.408       .  A
C1462      C1463   1.411       .  A
C1463      C1464   1.391       .  A
C1463      H1472   1.076       .  S
C1464      C1465   1.402       .  A
C1464      H1473   1.083       .  S
C1465      C1466   1.402       .  A
C1466      H1474   1.084       .  S
C1475      C1476   1.402       .  A
C1475      C1480   1.404       .  A
C1476      C1477   1.399       .  A
C1476      H1489   1.083       .  S
C1477      C1478   1.416       .  A
C1477      H1490   1.077       .  S
C1478      C1484   1.431       .  A
C1478      C1479   1.421       .  A
C1479      C1481   1.400       .  A
C1479      C1480   1.405       .  A
C1480      H1491   1.084       .  S
C1481      C1482   1.391       .  A
C1481      H1492   1.084       .  S
C1482      C1483   1.399       .  A
C1482      H1493   1.084       .  S
C1483      C1484   1.424       .  A
C1483      C1488   1.408       .  A
C1484      C1485   1.414       .  A
C1485      C1486   1.396       .  A
C1485      H1494   1.077       .  S
C1486      C1487   1.401       .  A
C1486      H1495   1.084       .  S
C1487      C1488   1.400       .  A
C1488      H1496   1.084       .  S
C1497      C1498   1.400       .  A
C1497      C1502   1.399       .  A
C1498      C1499   1.401       .  A
C1498      H1511   1.082       .  S
C1499      C1500   1.417       .  A
C1499      H1512   1.084       .  S
C1500      C1506   1.429       .  A
C1500      C1501   1.422       .  A
C1501      C1503   1.398       .  A
C1501      C1502   1.394       .  A
C1502      H1513   1.087       .  S
C1503      C1504   1.383       .  A
C1503      H1514   1.085       .  S
C1504      C1505   1.397       .  A
C1504      H1515   1.084       .  S
C1505      C1506   1.423       .  A
C1505      C1510   1.396       .  A
C1506      C1507   1.417       .  A
C1507      C1508   1.401       .  A
C1507      H1516   1.084       .  S
C1508      C1509   1.397       .  A
C1508      H1517   1.082       .  S
C1509      C1510   1.396       .  A
C1510      H1518   1.087       .  S
C1519      C1520   1.403       .  A
C1519      C1524   1.401       .  A
C1520      C1521   1.395       .  A
C1520      H1533   1.083       .  S
C1521      C1522   1.413       .  A
C1521      H1534   1.077       .  S
C1522      C1528   1.430       .  A
C1522      C1523   1.423       .  A
C1523      C1525   1.399       .  A
C1523      C1524   1.405       .  A
C1524      H1535   1.084       .  S
C1525      C1526   1.389       .  A
C1525      H1536   1.084       .  S
C1526      C1527   1.399       .  A
C1526      H1537   1.084       .  S
C1527      C1528   1.421       .  A
C1527      C1532   1.403       .  A
C1528      C1529   1.416       .  A
C1529      C1530   1.398       .  A
C1529      H1538   1.077       .  S
C1530      C1531   1.401       .  A
C1530      H1539   1.083       .  S
C1531      C1532   1.403       .  A
C1532      H1540   1.084       .  S
C1541      C1542   1.399       .  A
C1541      C1546   1.403       .  A
C1542      C1543   1.394       .  A
C1542      H1555   1.083       .  S
C1543      C1544   1.415       .  A
C1543      H1556   1.077       .  S
C1544      C1550   1.428       .  A
C1544      C1545   1.421       .  A
C1545      C1547   1.400       .  A
C1545      C1546   1.404       .  A
C1546      H1557   1.085       .  S
C1547      C1548   1.390       .  A
C1547      H1558   1.084       .  S
C1548      C1549   1.400       .  A
C1548      H1559   1.084       .  S
C1549      C1550   1.423       .  A
C1549      C1554   1.406       .  A
C1550      C1551   1.413       .  A
C1551      C1552   1.392       .  A
C1551      H1560   1.077       .  S
C1552      C1553   1.401       .  A
C1552      H1561   1.083       .  S
C1553      C1554   1.403       .  A
C1554      H1562   1.084       .  S
C1563      C1564   1.401       .  A
C1563      C1568   1.400       .  A
C1564      C1565   1.404       .  A
C1564      H1577   1.083       .  S
C1565      C1566   1.418       .  A
C1565      H1578   1.079       .  S
C1566      C1572   1.434       .  A
C1566      C1567   1.423       .  A
C1567      C1569   1.398       .  A
C1567      C1568   1.400       .  A
C1568      H1579   1.086       .  S
C1569      C1570   1.385       .  A
C1569      H1580   1.084       .  S
C1570      C1571   1.398       .  A
C1570      H1581   1.084       .  S
C1571      C1572   1.422       .  A
C1571      C1576   1.400       .  A
C1572      C1573   1.418       .  A
C1573      C1574   1.405       .  A
C1573      H1582   1.078       .  S
C1574      C1575   1.402       .  A
C1574      H1583   1.083       .  S
C1575      C1576   1.402       .  A
C1576      H1584   1.085       .  S
C1585      C1586   1.401       .  A
C1585      C1590   1.403       .  A
C1586      C1587   1.405       .  A
C1586      H1599   1.083       .  S
C1587      C1588   1.419       .  A
C1587      H1600   1.078       .  S
C1588      C1594   1.434       .  A
C1588      C1589   1.422       .  A
C1589      C1591   1.399       .  A
C1589      C1590   1.401       .  A
C1590      H1601   1.085       .  S
C1591      C1592   1.386       .  A
C1591      H1602   1.083       .  S
C1592      C1593   1.398       .  A
C1592      H1603   1.084       .  S
C1593      C1594   1.423       .  A
C1593      C1598   1.402       .  A
C1594      C1595   1.417       .  A
C1595      C1596   1.403       .  A
C1595      H1604   1.078       .  S
C1596      C1597   1.401       .  A
C1596      H1605   1.083       .  S
C1597      C1598   1.401       .  A
C1598      H1606   1.085       .  S
C1607      C1608   1.402       .  A
C1607      C1612   1.403       .  A
C1608      C1609   1.387       .  A
C1608      H1621   1.084       .  S
C1609      C1610   1.410       .  A
C1609      H1622   1.077       .  S
C1610      C1616   1.424       .  A
C1610      C1611   1.423       .  A
C1611      C1613   1.401       .  A
C1611      C1612   1.410       .  A
C1612      H1623   1.084       .  S
C1613      C1614   1.394       .  A
C1613      H1624   1.083       .  S
C1614      C1615   1.401       .  A
C1614      H1625   1.084       .  S
C1615      C1616   1.422       .  A
C1615      C1620   1.407       .  A
C1616      C1617   1.414       .  A
C1617      C1618   1.389       .  A
C1617      H1626   1.077       .  S
C1618      C1619   1.396       .  A
C1618      H1627   1.084       .  S
C1619      C1620   1.400       .  A
C1620      H1628   1.085       .  S
C1629      C1630   1.397       .  A
C1629      C1634   1.406       .  A
C1630      C1631   1.396       .  A
C1630      H1643   1.083       .  S
C1631      C1632   1.417       .  A
C1631      H1644   1.077       .  S
C1632      C1638   1.427       .  A
C1632      C1633   1.419       .  A
C1633      C1635   1.401       .  A
C1633      C1634   1.403       .  A
C1634      H1645   1.084       .  S
C1635      C1636   1.392       .  A
C1635      H1646   1.084       .  S
C1636      C1637   1.399       .  A
C1636      H1647   1.084       .  S
C1637      C1638   1.425       .  A
C1637      C1642   1.410       .  A
C1638      C1639   1.409       .  A
C1639      C1640   1.388       .  A
C1639      H1648   1.076       .  S
C1640      C1641   1.404       .  A
C1640      H1649   1.083       .  S
C1641      C1642   1.402       .  A
C1642      H1650   1.084       .  S
C1651      C1652   1.401       .  A
C1651      C1656   1.399       .  A
C1652      C1653   1.396       .  A
C1652      H1665   1.084       .  S
C1653      C1654   1.414       .  A
C1653      H1666   1.076       .  S
C1654      C1660   1.429       .  A
C1654      C1655   1.424       .  A
C1655      C1657   1.398       .  A
C1655      C1656   1.403       .  A
C1656      H1667   1.084       .  S
C1657      C1658   1.387       .  A
C1657      H1668   1.084       .  S
C1658      C1659   1.399       .  A
C1658      H1669   1.084       .  S
C1659      C1660   1.420       .  A
C1659      C1664   1.399       .  A
C1660      C1661   1.417       .  A
C1661      C1662   1.399       .  A
C1661      H1670   1.076       .  S
C1662      C1663   1.401       .  A
C1662      H1671   1.083       .  S
C1663      C1664   1.403       .  A
C1664      H1672   1.084       .  S
C1673      C1674   1.402       .  A
C1673      C1678   1.405       .  A
C1674      C1675   1.389       .  A
C1674      H1687   1.083       .  S
C1675      C1676   1.411       .  A
C1675      H1688   1.078       .  S
C1676      C1682   1.423       .  A
C1676      C1677   1.420       .  A
C1677      C1679   1.402       .  A
C1677      C1678   1.407       .  A
C1678      H1689   1.084       .  S
C1679      C1680   1.395       .  A
C1679      H1690   1.084       .  S
C1680      C1681   1.401       .  A
C1680      H1691   1.084       .  S
C1681      C1682   1.421       .  A
C1681      C1686   1.409       .  A
C1682      C1683   1.410       .  A
C1683      C1684   1.388       .  A
C1683      H1692   1.078       .  S
C1684      C1685   1.402       .  A
C1684      H1693   1.084       .  S
C1685      C1686   1.402       .  A
C1686      H1694   1.084       .  S
C1695      C1696   1.400       .  A
C1695      C1700   1.402       .  A
C1696      C1697   1.402       .  A
C1696      H1709   1.083       .  S
C1697      C1698   1.419       .  A
C1697      H1710   1.077       .  S
C1698      C1704   1.430       .  A
C1698      C1699   1.420       .  A
C1699      C1701   1.399       .  A
C1699      C1700   1.396       .  A
C1700      H1711   1.085       .  S
C1701      C1702   1.385       .  A
C1701      H1712   1.084       .  S
C1702      C1703   1.397       .  A
C1702      H1713   1.084       .  S
C1703      C1704   1.424       .  A
C1703      C1708   1.400       .  A
C1704      C1705   1.416       .  A
C1705      C1706   1.399       .  A
C1705      H1714   1.077       .  S
C1706      C1707   1.400       .  A
C1706      H1715   1.084       .  S
C1707      C1708   1.397       .  A
C1708      H1716   1.085       .  S
C1717      C1718   1.400       .  A
C1717      C1722   1.400       .  A
C1718      C1719   1.403       .  A
C1718      H1731   1.083       .  S
C1719      C1720   1.418       .  A
C1719      H1732   1.078       .  S
C1720      C1726   1.431       .  A
C1720      C1721   1.422       .  A
C1721      C1723   1.397       .  A
C1721      C1722   1.395       .  A
C1722      H1733   1.086       .  S
C1723      C1724   1.383       .  A
C1723      H1734   1.084       .  S
C1724      C1725   1.397       .  A
C1724      H1735   1.084       .  S
C1725      C1726   1.422       .  A
C1725      C1730   1.395       .  A
C1726      C1727   1.417       .  A
C1727      C1728   1.402       .  A
C1727      H1736   1.078       .  S
C1728      C1729   1.403       .  A
C1728      H1737   1.083       .  S
C1729      C1730   1.401       .  A
C1730      H1738   1.085       .  S
C1739      C1740   1.400       .  A
C1739      C1744   1.398       .  A
C1740      C1741   1.390       .  A
C1740      H1753   1.084       .  S
C1741      C1742   1.412       .  A
C1741      H1754   1.076       .  S
C1742      C1748   1.424       .  A
C1742      C1743   1.424       .  A
C1743      C1745   1.398       .  A
C1743      C1744   1.401       .  A
C1744      H1755   1.084       .  S
C1745      C1746   1.387       .  A
C1745      H1756   1.084       .  S
C1746      C1747   1.399       .  A
C1746      H1757   1.084       .  S
C1747      C1748   1.420       .  A
C1747      C1752   1.397       .  A
C1748      C1749   1.416       .  A
C1749      C1750   1.394       .  A
C1749      H1758   1.076       .  S
C1750      C1751   1.398       .  A
C1750      H1759   1.083       .  S
C1751      C1752   1.402       .  A
C1752      H1760   1.084       .  S
C1761      C1762   1.401       .  A
C1761      C1766   1.402       .  A
C1762      C1763   1.392       .  A
C1762      H1775   1.084       .  S
C1763      C1764   1.413       .  A
C1763      H1776   1.076       .  S
C1764      C1770   1.427       .  A
C1764      C1765   1.422       .  A
C1765      C1767   1.400       .  A
C1765      C1766   1.405       .  A
C1766      H1777   1.084       .  S
C1767      C1768   1.390       .  A
C1767      H1778   1.084       .  S
C1768      C1769   1.400       .  A
C1768      H1779   1.084       .  S
C1769      C1770   1.422       .  A
C1769      C1774   1.405       .  A
C1770      C1771   1.414       .  A
C1771      C1772   1.392       .  A
C1771      H1780   1.075       .  S
C1772      C1773   1.399       .  A
C1772      H1781   1.084       .  S
C1773      C1774   1.402       .  A
C1774      H1782   1.084       .  S
C1783      C1784   1.401       .  A
C1783      C1788   1.403       .  A
C1784      C1785   1.385       .  A
C1784      H1797   1.083       .  S
C1785      C1786   1.410       .  A
C1785      H1798   1.079       .  S
C1786      C1792   1.419       .  A
C1786      C1787   1.421       .  A
C1787      C1789   1.401       .  A
C1787      C1788   1.405       .  A
C1788      H1799   1.085       .  S
C1789      C1790   1.394       .  A
C1789      H1800   1.084       .  S
C1790      C1791   1.401       .  A
C1790      H1801   1.084       .  S
C1791      C1792   1.420       .  A
C1791      C1796   1.405       .  A
C1792      C1793   1.411       .  A
C1793      C1794   1.387       .  A
C1793      H1802   1.079       .  S
C1794      C1795   1.398       .  A
C1794      H1803   1.084       .  S
C1795      C1796   1.402       .  A
C1796      H1804   1.085       .  S
C1805      C1806   1.401       .  A
C1805      C1810   1.402       .  A
C1806      C1807   1.402       .  A
C1806      H1819   1.083       .  S
C1807      C1808   1.418       .  A
C1807      H1820   1.077       .  S
C1808      C1814   1.431       .  A
C1808      C1809   1.421       .  A
C1809      C1811   1.398       .  A
C1809      C1810   1.397       .  A
C1810      H1821   1.085       .  S
C1811      C1812   1.384       .  A
C1811      H1822   1.084       .  S
C1812      C1813   1.397       .  A
C1812      H1823   1.083       .  S
C1813      C1814   1.423       .  A
C1813      C1818   1.398       .  A
C1814      C1815   1.417       .  A
C1815      C1816   1.401       .  A
C1815      H1824   1.077       .  S
C1816      C1817   1.399       .  A
C1816      H1825   1.084       .  S
C1817      C1818   1.397       .  A
C1818      H1826   1.085       .  S
C1827      C1828   1.399       .  A
C1827      C1832   1.396       .  A
C1828      C1829   1.400       .  A
C1828      H1841   1.083       .  S
C1829      C1830   1.417       .  A
C1829      H1842   1.078       .  S
C1830      C1836   1.429       .  A
C1830      C1831   1.424       .  A
C1831      C1833   1.396       .  A
C1831      C1832   1.395       .  A
C1832      H1843   1.086       .  S
C1833      C1834   1.383       .  A
C1833      H1844   1.084       .  S
C1834      C1835   1.398       .  A
C1834      H1845   1.084       .  S
C1835      C1836   1.420       .  A
C1835      C1840   1.393       .  A
C1836      C1837   1.419       .  A
C1837      C1838   1.403       .  A
C1837      H1846   1.078       .  S
C1838      C1839   1.400       .  A
C1838      H1847   1.083       .  S
C1839      C1840   1.401       .  A
C1840      H1848   1.085       .  S
C1849      C1850   1.402       .  A
C1849      C1854   1.405       .  A
C1850      C1851   1.399       .  A
C1850      H1863   1.083       .  S
C1851      C1852   1.416       .  A
C1851      H1864   1.075       .  S
C1852      C1858   1.432       .  A
C1852      C1853   1.422       .  A
C1853      C1855   1.400       .  A
C1853      C1854   1.406       .  A
C1854      H1865   1.084       .  S
C1855      C1856   1.390       .  A
C1855      H1866   1.084       .  S
C1856      C1857   1.399       .  A
C1856      H1867   1.084       .  S
C1857      C1858   1.423       .  A
C1857      C1862   1.407       .  A
C1858      C1859   1.414       .  A
C1859      C1860   1.397       .  A
C1859      H1868   1.076       .  S
C1860      C1861   1.403       .  A
C1860      H1869   1.083       .  S
C1861      C1862   1.403       .  A
C1862      H1870   1.084       .  S
C1871      C1872   1.400       .  A
C1871      C1876   1.401       .  A
C1872      C1873   1.392       .  A
C1872      H1885   1.084       .  S
C1873      C1874   1.413       .  A
C1873      H1886   1.077       .  S
C1874      C1880   1.430       .  A
C1874      C1875   1.424       .  A
C1875      C1877   1.400       .  A
C1875      C1876   1.410       .  A
C1876      H1887   1.084       .  S
C1877      C1878   1.393       .  A
C1877      H1888   1.084       .  S
C1878      C1879   1.401       .  A
C1878      H1889   1.084       .  S
C1879      C1880   1.421       .  A
C1879      C1884   1.407       .  A
C1880      C1881   1.415       .  A
C1881      C1882   1.395       .  A
C1881      H1890   1.077       .  S
C1882      C1883   1.400       .  A
C1882      H1891   1.083       .  S
C1883      C1884   1.407       .  A
C1884      H1892   1.084       .  S
C1893      C1894   1.403       .  A
C1893      C1898   1.406       .  A
C1894      C1895   1.389       .  A
C1894      H1907   1.083       .  S
C1895      C1896   1.410       .  A
C1895      H1908   1.079       .  S
C1896      C1902   1.425       .  A
C1896      C1897   1.421       .  A
C1897      C1899   1.402       .  A
C1897      C1898   1.412       .  A
C1898      H1909   1.084       .  S
C1899      C1900   1.397       .  A
C1899      H1910   1.084       .  S
C1900      C1901   1.402       .  A
C1900      H1911   1.084       .  S
C1901      C1902   1.421       .  A
C1901      C1906   1.412       .  A
C1902      C1903   1.410       .  A
C1903      C1904   1.389       .  A
C1903      H1912   1.079       .  S
C1904      C1905   1.403       .  A
C1904      H1913   1.084       .  S
C1905      C1906   1.405       .  A
C1906      H1914   1.084       .  S
C1915      C1916   1.401       .  A
C1915      C1920   1.402       .  A
C1916      C1917   1.401       .  A
C1916      H1929   1.083       .  S
C1917      C1918   1.416       .  A
C1917      H1930   1.078       .  S
C1918      C1924   1.430       .  A
C1918      C1919   1.422       .  A
C1919      C1921   1.399       .  A
C1919      C1920   1.400       .  A
C1920      H1931   1.084       .  S
C1921      C1922   1.386       .  A
C1921      H1932   1.084       .  S
C1922      C1923   1.398       .  A
C1922      H1933   1.084       .  S
C1923      C1924   1.422       .  A
C1923      C1928   1.398       .  A
C1924      C1925   1.417       .  A
C1925      C1926   1.401       .  A
C1925      H1934   1.078       .  S
C1926      C1927   1.399       .  A
C1926      H1935   1.084       .  S
C1927      C1928   1.398       .  A
C1928      H1936   1.086       .  S
C1937      C1938   1.396       .  A
C1937      C1942   1.403       .  A
C1938      C1939   1.390       .  A
C1938      H1951   1.084       .  S
C1939      C1940   1.413       .  A
C1939      H1952   1.078       .  S
C1940      C1946   1.426       .  A
C1940      C1941   1.422       .  A
C1941      C1943   1.402       .  A
C1941      C1942   1.412       .  A
C1942      H1953   1.084       .  S
C1943      C1944   1.397       .  A
C1943      H1954   1.084       .  S
C1944      C1945   1.402       .  A
C1944      H1955   1.084       .  S
C1945      C1946   1.422       .  A
C1945      C1950   1.414       .  A
C1946      C1947   1.410       .  A
C1947      C1948   1.388       .  A
C1947      H1956   1.078       .  S
C1948      C1949   1.403       .  A
C1948      H1957   1.083       .  S
C1949      C1950   1.406       .  A
C1950      H1958   1.084       .  S
C1959      C1960   1.401       .  A
C1959      C1964   1.401       .  A
C1960      C1961   1.402       .  A
C1960      H1973   1.083       .  S
C1961      C1962   1.417       .  A
C1961      H1974   1.078       .  S
C1962      C1968   1.434       .  A
C1962      C1963   1.423       .  A
C1963      C1965   1.398       .  A
C1963      C1964   1.403       .  A
C1964      H1975   1.085       .  S
C1965      C1966   1.387       .  A
C1965      H1976   1.084       .  S
C1966      C1967   1.399       .  A
C1966      H1977   1.084       .  S
C1967      C1968   1.421       .  A
C1967      C1972   1.402       .  A
C1968      C1969   1.418       .  A
C1969      C1970   1.404       .  A
C1969      H1978   1.078       .  S
C1970      C1971   1.402       .  A
C1970      H1979   1.083       .  S
C1971      C1972   1.405       .  A
C1972      H1980   1.084       .  S
C1981      C1982   1.401       .  A
C1981      C1986   1.399       .  A
C1982      C1983   1.396       .  A
C1982      H1995   1.084       .  S
C1983      C1984   1.414       .  A
C1983      H1996   1.078       .  S
C1984      C1990   1.430       .  A
C1984      C1985   1.424       .  A
C1985      C1987   1.398       .  A
C1985      C1986   1.404       .  A
C1986      H1997   1.085       .  S
C1987      C1988   1.388       .  A
C1987      H1998   1.084       .  S
C1988      C1989   1.399       .  A
C1988      H1999   1.084       .  S
C1989      C1990   1.421       .  A
C1989      C1994   1.402       .  A
C1990      C1991   1.416       .  A
C1991      C1992   1.398       .  A
C1991      H2000   1.077       .  S
C1992      C1993   1.401       .  A
C1992      H2001   1.083       .  S
C1993      C1994   1.404       .  A
C1994      H2002   1.084       .  S
C2003      C2004   1.400       .  A
C2003      C2008   1.402       .  A
C2004      C2005   1.391       .  A
C2004      H2017   1.084       .  S
C2005      C2006   1.412       .  A
C2005      H2018   1.077       .  S
C2006      C2012   1.426       .  A
C2006      C2007   1.423       .  A
C2007      C2009   1.399       .  A
C2007      C2008   1.406       .  A
C2008      H2019   1.084       .  S
C2009      C2010   1.390       .  A
C2009      H2020   1.084       .  S
C2010      C2011   1.400       .  A
C2010      H2021   1.084       .  S
C2011      C2012   1.421       .  A
C2011      C2016   1.402       .  A
C2012      C2013   1.415       .  A
C2013      C2014   1.393       .  A
C2013      H2022   1.077       .  S
C2014      C2015   1.398       .  A
C2014      H2023   1.083       .  S
C2015      C2016   1.403       .  A
C2016      H2024   1.085       .  S
C2025      C2026   1.396       .  A
C2025      C2030   1.401       .  A
C2026      C2027   1.390       .  A
C2026      H2039   1.084       .  S
C2027      C2028   1.413       .  A
C2027      H2040   1.076       .  S
C2028      C2034   1.425       .  A
C2028      C2029   1.422       .  A
C2029      C2031   1.401       .  A
C2029      C2030   1.409       .  A
C2030      H2041   1.084       .  S
C2031      C2032   1.395       .  A
C2031      H2042   1.084       .  S
C2032      C2033   1.401       .  A
C2032      H2043   1.084       .  S
C2033      C2034   1.422       .  A
C2033      C2038   1.411       .  A
C2034      C2035   1.411       .  A
C2035      C2036   1.389       .  A
C2035      H2044   1.076       .  S
C2036      C2037   1.401       .  A
C2036      H2045   1.084       .  S
C2037      C2038   1.403       .  A
C2038      H2046   1.084       .  S
C2047      C2048   1.401       .  A
C2047      C2052   1.402       .  A
C2048      C2049   1.401       .  A
C2048      H2061   1.083       .  S
C2049      C2050   1.417       .  A
C2049      H2062   1.077       .  S
C2050      C2056   1.430       .  A
C2050      C2051   1.422       .  A
C2051      C2053   1.399       .  A
C2051      C2052   1.398       .  A
C2052      H2063   1.084       .  S
C2053      C2054   1.385       .  A
C2053      H2064   1.084       .  S
C2054      C2055   1.398       .  A
C2054      H2065   1.084       .  S
C2055      C2056   1.423       .  A
C2055      C2060   1.398       .  A
C2056      C2057   1.417       .  A
C2057      C2058   1.401       .  A
C2057      H2066   1.077       .  S
C2058      C2059   1.398       .  A
C2058      H2067   1.084       .  S
C2059      C2060   1.398       .  A
C2060      H2068   1.085       .  S
C2069      C2070   1.400       .  A
C2069      C2074   1.396       .  A
C2070      C2071   1.400       .  A
C2070      H2083   1.082       .  S
C2071      C2072   1.416       .  A
C2071      H2084   1.089       .  S
C2072      C2078   1.429       .  A
C2072      C2073   1.423       .  A
C2073      C2075   1.396       .  A
C2073      C2074   1.394       .  A
C2074      H2085   1.089       .  S
C2075      C2076   1.382       .  A
C2075      H2086   1.086       .  S
C2076      C2077   1.397       .  A
C2076      H2087   1.085       .  S
C2077      C2078   1.421       .  A
C2077      C2082   1.393       .  A
C2078      C2079   1.416       .  A
C2079      C2080   1.401       .  A
C2079      H2088   1.089       .  S
C2080      C2081   1.401       .  A
C2080      H2089   1.081       .  S
C2081      C2082   1.399       .  A
C2082      H2090   1.088       .  S
C2091      C2092   1.400       .  A
C2091      C2096   1.403       .  A
C2092      C2093   1.389       .  A
C2092      H2105   1.084       .  S
C2093      C2094   1.412       .  A
C2093      H2106   1.078       .  S
C2094      C2100   1.425       .  A
C2094      C2095   1.422       .  A
C2095      C2097   1.401       .  A
C2095      C2096   1.410       .  A
C2096      H2107   1.085       .  S
C2097      C2098   1.394       .  A
C2097      H2108   1.084       .  S
C2098      C2099   1.401       .  A
C2098      H2109   1.084       .  S
C2099      C2100   1.422       .  A
C2099      C2104   1.410       .  A
C2100      C2101   1.412       .  A
C2101      C2102   1.389       .  A
C2101      H2110   1.079       .  S
C2102      C2103   1.399       .  A
C2102      H2111   1.084       .  S
C2103      C2104   1.401       .  A
C2104      H2112   1.085       .  S
