geometry optimzed in LAMMPS
_audit_creation_date              2020-11-30 
_audit_creation_method            'lammps2cif' 
_symmetry_space_group_name_H-M    'P1' 
_symmetry_Int_Tables_number       1 
_symmetry_cell_setting            triclinic 
loop_ 
_symmetry_equiv_pos_as_xyz 
  x,y,z 
_cell_length_a                    61.76288344 
_cell_length_b                    61.874418058634554 
_cell_length_c                    43.182259240256556 
_cell_angle_alpha                 89.87992173363983 
_cell_angle_beta                  89.76641282014819 
_cell_angle_gamma                 119.71103587540416 
loop_ 
_atom_site_label 
_atom_site_type_symbol 
_atom_site_fract_x 
_atom_site_fract_y 
_atom_site_fract_z 
_atom_site_charge 
Fe1        Fe  0.21613032  0.28382237  0.19754512     1.65800
Fe2        Fe  0.24870581  0.25296509  0.18959322     1.73200
Fe3        Fe  0.23085117  0.27286675  0.12493482     1.54400
O4          O  0.19368941  0.26364607  0.12409164    -0.82200
O5          O  0.28009727  0.27210367  0.16241199    -0.80500
O6          O  0.18387499  0.26795950  0.17252461    -0.84700
O7          O  0.23033752  0.31635891  0.17246335    -0.79500
O8          O  0.21954340  0.23573650  0.11809579    -0.81300
O9          O  0.26691842  0.28033441  0.22298016    -0.84100
C10         C  0.23954274  0.32414415  0.14573830     0.96700
C11         C  0.17816074  0.26220437  0.14445341     1.04100
O12         O  0.23192838  0.26989639  0.17062750    -1.13000
O13         O  0.21887168  0.23118246  0.21866210    -0.75500
O14         O  0.19968202  0.25316832  0.22614265    -0.79000
O15         O  0.24198378  0.31046643  0.12578535    -0.79700
C16         C  0.20188631  0.23417482  0.23102342     0.95600
O17         O  0.24647803  0.30145649  0.22561068    -0.77600
O18         O  0.23333616  0.22384052  0.15841603    -0.82800
C19         C  0.28436843  0.28128699  0.13533691     0.98200
C20         C  0.22271059  0.21950621  0.13226041     1.04100
O21         O  0.26776140  0.28248031  0.11937392    -0.78500
C22         C  0.26417833  0.29797685  0.23359508     1.02400
Fe23       Fe  0.21358482  0.43023032  0.19390624     1.65800
Fe24       Fe  0.24696597  0.99319394  0.18656970     1.73200
Fe25       Fe  0.22886570  0.45577250  0.12170218     1.54400
O26         O  0.24169052  0.43039722  0.12327040    -0.82200
O27         O  0.23264817  0.00757255  0.15436891    -0.80500
O28         O  0.22601903  0.41078208  0.16809046    -0.84700
O29         O  0.18089621  0.41588880  0.17002582    -0.79500
O30         O  0.26520920  0.48360006  0.11518308    -0.81300
O31         O  0.21811239  0.48628187  0.21544191    -0.84100
C32         C  0.17592183  0.41459465  0.14148273     0.96700
C33         C  0.23773406  0.41351802  0.14294702     1.04100
O34         O  0.23006843  0.45979548  0.16724331    -1.13000
O35         O  0.26387064  0.98294659  0.22085416    -0.75500
O36         O  0.24432685  0.44145420  0.22080211    -0.79000
O37         O  0.19213591  0.42727407  0.12106357    -0.79700
C38         C  0.26188346  0.46219066  0.22970402     0.95600
O39         O  0.19912506  0.44545866  0.22352753    -0.77600
O40         O  0.27847071  0.00405758  0.16011482    -0.82800
C41         C  0.22000469  0.00043375  0.12953755     0.98200
C42         C  0.28166805  0.00032184  0.13203163     1.04100
O43         O  0.21622918  0.48083893  0.11561596    -0.78500
C44         C  0.20172485  0.46666556  0.22883412     1.02400
Fe45       Fe  0.07225413  0.28674982  0.19265862     1.65800
Fe46       Fe  0.50856321  0.25533854  0.18549901     1.73200
Fe47       Fe  0.04648082  0.27361607  0.12039976     1.54400
O48         O  0.07142860  0.31137934  0.12001120    -0.82200
O49         O  0.49526028  0.22595660  0.15486448    -0.80500
O50         O  0.08957092  0.31848559  0.16626569    -0.84700
O51         O  0.08890870  0.27043992  0.16867547    -0.79500
O52         O  0.01857754  0.28216269  0.11387916    -0.81300
O53         O  0.01751269  0.23506740  0.21656683    -0.84100
C54         C  0.08941200  0.26462006  0.14073036     0.96700
C55         C  0.08709119  0.32568918  0.13970976     1.04100
O56         O  0.04258504  0.27188866  0.16617884    -1.13000
O57         O  0.01792822  0.28368416  0.21728839    -0.75500
O58         O  0.05935411  0.30486811  0.21987013    -0.79000
O59         O  0.07533885  0.26554283  0.12008910    -0.79700
C60         C  0.03812255  0.30156382  0.22732631     0.95600
O61         O  0.05859482  0.25710589  0.22261486    -0.77600
O62         O  0.49659434  0.27429873  0.15771414    -0.82800
C63         C  0.50218741  0.22059275  0.12963417     0.98200
C64         C  0.50101997  0.28195497  0.12991712     1.04100
O65         O  0.02164438  0.23616194  0.11532072    -0.78500
C66         C  0.03753614  0.23868083  0.22927228     1.02400
Fe67       Fe  0.23946982  0.12055890  0.02430642     1.65800
Fe68       Fe  0.17639636  0.08826269  0.01697320     1.73200
Fe69       Fe  0.21413980  0.10744957  0.45216199     1.54400
O70         O  0.24180011  0.14464696  0.45155085    -0.82200
O71         O  0.16380032  0.05806387  0.48869830    -0.80500
O72         O  0.25539580  0.15304407  0.99982294    -0.84700
O73         O  0.25726857  0.10627578  0.99873918    -0.79500
O74         O  0.18844034  0.11914826  0.44607120    -0.81300
O75         O  0.18570393  0.06966029  0.04999570    -0.84100
C76         C  0.25485274  0.09592923  0.47355438     0.96700
C77         C  0.25570624  0.15959933  0.47216887     1.04100
O78         O  0.20987563  0.10528116  0.99768339    -1.13000
O79         O  0.18440338  0.11777014  0.04661335    -0.75500
O80         O  0.22545886  0.13661334  0.05350284    -0.79000
O81         O  0.24006134  0.09537598  0.45286833    -0.79700
C82         C  0.20435342  0.13446253  0.05892928     0.95600
O83         O  0.22707401  0.09000308  0.05214121    -0.77600
O84         O  0.16303302  0.10552172  0.48688532    -0.82800
C85         C  0.16915771  0.05409833  0.46162198     0.98200
C86         C  0.16940005  0.11643085  0.46071666     1.04100
O87         O  0.18704751  0.07084742  0.44602245    -0.78500
C88         C  0.20608772  0.07232959  0.06043536     1.02400
Fe89       Fe  0.38164969  0.12012176  0.02655978     1.65800
Fe90       Fe  0.41346339  0.08839044  0.02153814     1.73200
Fe91       Fe  0.39599587  0.10658574  0.45584101     1.54400
O92         O  0.35833152  0.09522822  0.45489428    -0.82200
O93         O  0.44534259  0.10700035  0.49400428    -0.80500
O94         O  0.34988702  0.10436405  0.00040587    -0.84700
O95         O  0.39740564  0.15230837  0.00120080    -0.79500
O96         O  0.38634853  0.06989189  0.45027473    -0.81300
O97         O  0.43288439  0.11730526  0.05238979    -0.84100
C98         C  0.40447534  0.15820951  0.47451282     0.96700
C99         C  0.34300056  0.09456758  0.47499975     1.04100
O100        O  0.39705245  0.10505559  0.00103497    -1.13000
O101        O  0.38443413  0.06892889  0.05265408    -0.75500
O102        O  0.36405244  0.09007255  0.05559008    -0.79000
O103        O  0.40579052  0.14378775  0.45478011    -0.79700
C104        C  0.36699346  0.07199769  0.06338166     0.95600
O105        O  0.41156226  0.13750451  0.05552640    -0.77600
O106        O  0.39861062  0.05841186  0.49239012    -0.82800
C107        C  0.44979557  0.11691154  0.46725121     0.98200
C108        C  0.38892843  0.05384257  0.46566244     1.04100
O109        O  0.43322357  0.11784495  0.45105057    -0.78500
C110        C  0.42977453  0.13468347  0.06305844     1.02400
Fe111      Fe  0.38299821  0.26419087  0.02649124     1.65800
Fe112      Fe  0.41467810  0.32724960  0.01933641     1.73200
Fe113      Fe  0.39621152  0.29028490  0.45533869     1.54400
O114        O  0.40311300  0.26072534  0.45572019    -0.82200
O115        O  0.39484353  0.33922969  0.49319932    -0.80500
O116        O  0.40094223  0.24892177  0.00317280    -0.84700
O117        O  0.35187050  0.24582147  0.99936782    -0.79500
O118        O  0.43388429  0.31341618  0.45068551    -0.81300
O119        O  0.38676970  0.31812910  0.05198422    -0.84100
C120        C  0.34483349  0.24862641  0.47312721     0.96700
C121        C  0.40681770  0.24868430  0.47689132     1.04100
O122        O  0.39793535  0.29399859  0.00002419    -1.13000
O123        O  0.43535026  0.31859640  0.04913317    -0.75500
O124        O  0.41186228  0.27793645  0.05721094    -0.79000
O125        O  0.35824590  0.26655738  0.45511803    -0.79700
C126        C  0.43103665  0.29862089  0.06255997     0.95600
O127        O  0.36392018  0.27668758  0.05284244    -0.77600
O128        O  0.44348622  0.34084652  0.48854574    -0.82800
C129        C  0.38801944  0.33556802  0.46514146     0.98200
C130        C  0.44922746  0.33325012  0.46419151     1.04100
O131        O  0.38925847  0.31933072  0.44852157    -0.78500
C132        C  0.36823234  0.29800028  0.06145808     1.02400
Fe133      Fe  0.40450785  0.45337486  0.35999448     1.65800
Fe134      Fe  0.34123912  0.42085409  0.35422461     1.73200
Fe135      Fe  0.37792687  0.43918058  0.28824302     1.54400
O136        O  0.40323298  0.47714370  0.28697664    -0.82200
O137        O  0.32811846  0.39026782  0.32530871    -0.80500
O138        O  0.42053938  0.48502109  0.33365936    -0.84700
O139        O  0.42130291  0.43754493  0.33558734    -0.79500
O140        O  0.35025903  0.44810523  0.28234761    -0.81300
O141        O  0.35088890  0.40150238  0.38539418    -0.84100
C142        C  0.42062431  0.42988765  0.30830431     0.96700
C143        C  0.41825525  0.49199483  0.30688339     1.04100
O144        O  0.37448322  0.43775474  0.33411126    -1.13000
O145        O  0.35000516  0.44966991  0.38525993    -0.75500
O146        O  0.39143871  0.47091909  0.38787568    -0.79000
O147        O  0.40609346  0.43007687  0.28777245    -0.79700
C148        C  0.37021852  0.46759740  0.39534892     0.95600
O149        O  0.39209961  0.42391084  0.38973064    -0.77600
O150        O  0.32745425  0.43779036  0.32552510    -0.82800
C151        C  0.33424775  0.38550750  0.29910320     0.98200
C152        C  0.33243845  0.44685881  0.29833655     1.04100
O153        O  0.35272858  0.40174462  0.28370275    -0.78500
C154        C  0.37135119  0.40538329  0.39701537     1.02400
Fe155      Fe  0.04937085  0.45225185  0.36239064     1.65800
Fe156      Fe  0.08182079  0.42142338  0.35367595     1.73200
Fe157      Fe  0.06118676  0.43901846  0.28943760     1.54400
O158        O  0.02344301  0.42703155  0.29069909    -0.82200
O159        O  0.11144062  0.43911412  0.32348717    -0.80500
O160        O  0.01677392  0.43701171  0.33790132    -0.84700
O161        O  0.06422025  0.48454204  0.33737455    -0.79500
O162        O  0.05214241  0.40246891  0.28335232    -0.81300
O163        O  0.10193327  0.45019123  0.38430679    -0.84100
C164        C  0.07069983  0.49091251  0.30952787     0.96700
C165        C  0.00921540  0.42788446  0.31128969     1.04100
O166        O  0.06413667  0.43754507  0.33511753    -1.13000
O167        O  0.05397952  0.40139726  0.38592988    -0.75500
O168        O  0.03284812  0.42174235  0.39048121    -0.79000
O169        O  0.06999935  0.47596796  0.28899386    -0.79700
C170        C  0.03646183  0.40394814  0.39746299     0.95600
O171        O  0.07989034  0.46941186  0.39061021    -0.77600
O172        O  0.06453701  0.39090194  0.32525544    -0.82800
C173        C  0.11528535  0.44953197  0.29710278     0.98200
C174        C  0.05467817  0.38635650  0.29868790     1.04100
O175        O  0.09838611  0.45103438  0.28238083    -0.78500
C176        C  0.09862979  0.46699356  0.39640372     1.02400
Fe177      Fe  0.04786572  0.09648457  0.36073658     1.65800
Fe178      Fe  0.07910080  0.15943261  0.35280870     1.73200
Fe179      Fe  0.05849205  0.12189547  0.28862046     1.54400
O180        O  0.06478380  0.09180784  0.28757161    -0.82200
O181        O  0.05940754  0.17192950  0.32703813    -0.80500
O182        O  0.06536997  0.08123314  0.33670846    -0.84700
O183        O  0.01596040  0.07798389  0.33473545    -0.79500
O184        O  0.09620390  0.14494815  0.28222185    -0.81300
O185        O  0.05241389  0.15023257  0.38781584    -0.84100
C186        C  0.00718937  0.08142906  0.30988370     0.96700
C187        C  0.06840618  0.07924161  0.30810762     1.04100
O188        O  0.06177208  0.12601406  0.33405319    -1.13000
O189        O  0.10115109  0.15103151  0.38059496    -0.75500
O190        O  0.07752089  0.11065911  0.39073613    -0.79000
O191        O  0.02034265  0.09840247  0.29053467    -0.79700
C192        C  0.09712914  0.13136746  0.39465930     0.95600
O193        O  0.02926527  0.10891910  0.38744446    -0.77600
O194        O  0.10776785  0.17265638  0.32016260    -0.82800
C195        C  0.05144325  0.16791358  0.29943097     0.98200
C196        C  0.11242501  0.16473020  0.29519485     1.04100
O197        O  0.05161632  0.15112997  0.28278741    -0.78500
C198        C  0.03396759  0.12995641  0.39741980     1.02400
C199        C  0.09264355  0.05825161  0.31793151    -0.20800
C200        C  0.07515140  0.06032361  0.29935180    -0.07400
C201        C  0.06055588  0.04107710  0.27835816     0.13500
C202        C  0.06181041  0.01903531  0.27912625    -0.20900
C203        C  0.07664799  0.01575296  0.30102404    -0.07400
C204        C  0.09343041  0.03605695  0.31924125     0.13500
C205        C  0.11139681  0.03400671  0.34101076    -0.24200
H206        H  0.10418547  0.07328708  0.33352843     0.14800
H207        H  0.05048181  0.50371800  0.26388758     0.14800
C208        C  0.04185279  0.04260206  0.25748862    -0.24200
H209        H  0.12382312  0.05201841  0.35248885     0.05000
H210        H  0.12326850  0.02836805  0.32786359     0.08200
H211        H  0.10119342  0.02009051  0.35947644     0.08200
H212        H  0.05157754  0.05877152  0.24158018     0.08200
H213        H  0.02792134  0.04470081  0.27156781     0.08200
H214        H  0.03164430  0.02561373  0.24316016     0.05000
C215        C  0.43867908  0.03519701  0.32346375    -0.20800
C216        C  0.43494358  0.01869722  0.29917735    -0.07400
C217        C  0.45132784  0.02720633  0.27347993     0.13500
C218        C  0.47379588  0.04995393  0.27579923    -0.20900
C219        C  0.47958730  0.06414472  0.30301940    -0.07400
C220        C  0.46086223  0.05788280  0.32576372     0.13500
C221        C  0.46455308  0.07444244  0.35318578    -0.24200
H222        H  0.42531090  0.02915081  0.34239933     0.14800
H223        H  0.48776196  0.05538067  0.25768266     0.14800
C224        C  0.44597189  0.01178325  0.24468917    -0.24200
H225        H  0.44720673  0.06744586  0.36718614     0.05000
H226        H  0.46991079  0.09346949  0.34496727     0.08200
H227        H  0.47918102  0.07531640  0.36874950     0.08200
H228        H  0.42764995  0.50834065  0.23513349     0.08200
H229        H  0.44365218  0.49319253  0.25112152     0.08200
H230        H  0.46091203  0.02117536  0.22699646     0.05000
C231        C  0.44140281  0.40646001  0.32342435    -0.20800
C232        C  0.43844482  0.42128593  0.30107983    -0.07400
C233        C  0.45624582  0.43216405  0.27703116     0.13500
C234        C  0.47836962  0.43105545  0.27861426    -0.20900
C235        C  0.48293380  0.41967358  0.30393095    -0.07400
C236        C  0.46354429  0.40555613  0.32521154     0.13500
C237        C  0.46650963  0.39035685  0.35050030    -0.24200
H238        H  0.42727477  0.39741738  0.34125805     0.14800
H239        H  0.49319231  0.44146465  0.26200607     0.14800
C240        C  0.45326484  0.44716254  0.25170264    -0.24200
H241        H  0.44895370  0.37944060  0.36389842     0.05000
H242        H  0.98175049  0.40339637  0.36746125     0.08200
H243        H  0.47161946  0.37708180  0.34010849     0.08200
H244        H  0.45246006  0.46306518  0.26212179     0.08200
H245        H  0.43585982  0.43534052  0.23871398     0.08200
H246        H  0.46910901  0.45465856  0.23503402     0.05000
C247        C  0.39130486  0.37689961  0.46045908    -0.20800
C248        C  0.37982314  0.35202646  0.45074055    -0.07400
C249        C  0.36216004  0.34412360  0.42648326     0.13500
C250        C  0.35823977  0.36179455  0.41084238    -0.20900
C251        C  0.37170258  0.38706770  0.41860871    -0.07400
C252        C  0.38758577  0.39455955  0.44464933     0.13500
C253        C  0.40068704  0.42110266  0.45595048    -0.24200
H254        H  0.40433602  0.38290161  0.47955403     0.14800
H255        H  0.34571729  0.35606761  0.39123211     0.14800
C256        C  0.34733575  0.31722210  0.41691913    -0.24200
H257        H  0.41060916  0.42304368  0.47806510     0.05000
H258        H  0.38685105  0.42731189  0.46000826     0.08200
H259        H  0.41479741  0.43357732  0.43880820     0.08200
H260        H  0.33765862  0.30543181  0.43741491     0.08200
H261        H  0.35973381  0.31106074  0.40629278     0.08200
H262        H  0.33295571  0.31428396  0.39949731     0.05000
C263        C  0.98895571  0.37413247  0.46112937    -0.20800
C264        C  0.47435688  0.34915405  0.45026795    -0.07400
C265        C  0.48387232  0.34168389  0.42487104     0.13500
C266        C  0.50565300  0.35952891  0.40972291    -0.20900
C267        C  0.01837942  0.38497874  0.41875740    -0.07400
C268        C  0.01047639  0.39181934  0.44585574     0.13500
C269        C  0.02466244  0.41776759  0.45885129    -0.24200
H270        H  0.98251396  0.37994579  0.48113623     0.14800
H271        H  0.51212923  0.35440636  0.38910271     0.14800
C272        C  0.47126743  0.31533143  0.41297726    -0.24200
H273        H  0.01665603  0.41936222  0.48123849     0.05000
H274        H  0.02423931  0.43148981  0.44268785     0.08200
H275        H  0.04421096  0.42250606  0.46302667     0.08200
H276        H  0.45302900  0.31043008  0.40252883     0.08200
H277        H  0.46864459  0.30228297  0.43220011     0.08200
H278        H  0.48255289  0.31283737  0.39471012     0.05000
C279        C  0.50578673  0.14703044  0.41272393    -0.20800
C280        C  0.01632149  0.13021848  0.42035119    -0.07400
C281        C  0.00576825  0.11181785  0.44386871     0.13500
C282        C  0.98524586  0.10924290  0.46067303    -0.20900
C283        C  0.47483830  0.12586618  0.45341938    -0.07400
C284        C  0.48460388  0.14367734  0.42904967     0.13500
C285        C  0.47289863  0.15910229  0.41987163    -0.24200
H286        H  0.51234982  0.15932449  0.39274775     0.14800
H287        H  0.97647043  0.09428166  0.47751330     0.14800
C288        C  0.01573993  0.09452959  0.45127436    -0.24200
H289        H  0.48454689  0.17367100  0.40264028     0.05000
H290        H  0.47082460  0.16857641  0.44056001     0.08200
H291        H  0.45445363  0.14725736  0.40911044     0.08200
H292        H  0.03600512  0.10559035  0.45583640     0.08200
H293        H  0.01224346  0.08148010  0.43191253     0.08200
H294        H  0.00666054  0.08303281  0.47219070     0.05000
C295        C  0.38303627  0.49143625  0.44384117    -0.20800
C296        C  0.36982209  0.48624824  0.41603363    -0.07400
C297        C  0.36063252  0.50183145  0.40600090     0.13500
C298        C  0.36587465  0.02288205  0.42430667    -0.20900
C299        C  0.38099615  0.02923792  0.45090603    -0.07400
C300        C  0.38984216  0.01304918  0.46067843     0.13500
C301        C  0.40608979  0.01812129  0.48877648    -0.24200
H302        H  0.39021870  0.47940880  0.45109975     0.14800
H303        H  0.35879720  0.03488167  0.41664868     0.14800
C304        C  0.34698277  0.49727444  0.37572274    -0.24200
H305        H  0.41144758  0.00359983  0.49225983     0.05000
H306        H  0.39588086  0.01831571  0.50989418     0.08200
H307        H  0.42357633  0.03620654  0.48601249     0.08200
H308        H  0.32967594  0.47889145  0.37641166     0.08200
H309        H  0.35904548  0.49758175  0.35637016     0.08200
H310        H  0.34168066  0.51167571  0.37091611     0.05000
C311        C  0.42909632  0.20274525  0.48631472    -0.20800
C312        C  0.41241836  0.18416357  0.46633724    -0.07400
C313        C  0.39937583  0.18999279  0.44413034     0.13500
C314        C  0.40085562  0.21331700  0.44509812    -0.20900
C315        C  0.41431525  0.23030037  0.46852504    -0.07400
C316        C  0.43023172  0.22588855  0.48772077     0.13500
C317        C  0.44773603  0.24509917  0.51038113    -0.24200
H318        H  0.43957371  0.19834043  0.50277172     0.14800
H319        H  0.38898513  0.21696162  0.43008966     0.14800
C320        C  0.38133401  0.17065218  0.42230197    -0.24200
H321        H  0.45999519  0.23908364  0.52174278     0.05000
H322        H  0.43718770  0.24905598  0.02742569     0.08200
H323        H  0.45983034  0.26285912  0.49797800     0.08200
H324        H  0.36734806  0.15622890  0.93434513     0.08200
H325        H  0.39103078  0.16307601  0.40807380     0.08200
H326        H  0.37269986  0.17832589  0.40639659     0.05000
C327        C  0.12904146  0.11630393  0.45909532    -0.20800
C328        C  0.15289000  0.12481448  0.44609418    -0.07400
C329        C  0.15929905  0.13942133  0.41853652     0.13500
C330        C  0.14103327  0.14276582  0.40347882    -0.20900
C331        C  0.11660436  0.13190954  0.41493953    -0.07400
C332        C  0.11087010  0.11960678  0.44389051     0.13500
C333        C  0.08571992  0.11014634  0.45904014    -0.24200
H334        H  0.12405341  0.10596499  0.48070684     0.14800
H335        H  0.14547431  0.15271168  0.38157344     0.14800
C336        C  0.18503125  0.15136276  0.40430382    -0.24200
H337        H  0.08502021  0.10246882  0.48253535     0.05000
H338        H  0.07096431  0.09506885  0.44507596     0.08200
H339        H  0.08172878  0.12569962  0.46143081     0.08200
H340        H  0.18904095  0.13689827  0.39539917     0.08200
H341        H  0.19912744  0.16305017  0.42176833     0.08200
H342        H  0.18688251  0.16358474  0.38440063     0.05000
C343        C  0.12882205  0.01444574  0.45972912    -0.20800
C344        C  0.15281415  0.02937189  0.44711159    -0.07400
C345        C  0.15960209  0.02092256  0.42008267     0.13500
C346        C  0.14169991  0.99906157  0.40546302    -0.20900
C347        C  0.11804423  0.48578805  0.41647741    -0.07400
C348        C  0.11236808  0.49164552  0.44586292     0.13500
C349        C  0.08770034  0.47505363  0.46146890    -0.24200
H350        H  0.12519938  0.51795602  0.48305380     0.14800
H351        H  0.14642577  0.99325329  0.38399565     0.14800
C352        C  0.18536510  0.03475069  0.40597229    -0.24200
H353        H  0.08664207  0.48194669  0.48484327     0.05000
H354        H  0.08529947  0.45615521  0.46418952     0.08200
H355        H  0.07218494  0.47404982  0.44754322     0.08200
H356        H  0.19952221  0.03766890  0.42370154     0.08200
H357        H  0.18894751  0.05289926  0.39642770     0.08200
H358        H  0.18759922  0.02426182  0.38654060     0.05000
C359        C  0.29103312  0.19053898  0.44086972    -0.20800
C360        C  0.27344756  0.18571752  0.46436104    -0.07400
C361        C  0.27731201  0.20486768  0.48524002     0.13500
C362        C  0.30025968  0.22690031  0.48512801    -0.20900
C363        C  0.31923629  0.23032413  0.46444202    -0.07400
C364        C  0.31415117  0.21263106  0.44081315     0.13500
C365        C  0.33332166  0.21518136  0.41716548    -0.24200
H366        H  0.28796804  0.17592781  0.42468215     0.14800
H367        H  0.30404204  0.24068607  0.50288986     0.14800
C368        C  0.25814017  0.20196116  0.50911737    -0.24200
H369        H  0.32594794  0.21443866  0.39354659     0.08600
H370        H  0.33723024  0.19959174  0.41991241     0.08200
H371        H  0.35120508  0.23281398  0.41909970     0.08200
H372        H  0.26452403  0.20284545  0.03134696     0.08200
H373        H  0.24025061  0.18436316  0.50641657     0.08200
H374        H  0.25410303  0.21748467  0.50671340     0.05000
C375        C  0.28726352  0.09441175  0.44106701    -0.20800
C376        C  0.27175085  0.08606224  0.46731665    -0.07400
C377        C  0.27663427  0.07303408  0.98976335     0.13500
C378        C  0.29930119  0.07317613  0.98924890    -0.20900
C379        C  0.31663043  0.08524891  0.46694554    -0.07400
C380        C  0.30957041  0.09350678  0.44026199     0.13500
C381        C  0.32572028  0.10217779  0.41166097    -0.24200
H382        H  0.28305147  0.10348120  0.42243760     0.14800
H383        H  0.30433533  0.06556993  0.00879415     0.14800
C384        C  0.25850427  0.05989165  0.01597449    -0.24200
H385        H  0.31743529  0.10835888  0.39328898     0.05000
H386        H  0.32783737  0.08661603  0.40234313     0.08200
H387        H  0.34437068  0.11785172  0.41701517     0.08200
H388        H  0.23986032  0.04676951  0.00644220     0.08200
H389        H  0.25703376  0.07342586  0.03130531     0.08200
H390        H  0.26450466  0.04901409  0.03055744     0.05000
C391        C  0.47469835  0.31090877  0.07427020    -0.20800
C392        C  0.44968374  0.29870374  0.08377179    -0.07400
C393        C  0.44263880  0.28428193  0.11122191     0.13500
C394        C  0.46035497  0.28055823  0.12678995    -0.20900
C395        C  0.48482651  0.29050542  0.11542266    -0.07400
C396        C  0.49241508  0.30692142  0.08958467     0.13500
C397        C  0.51893440  0.32021533  0.07776578    -0.24200
H398        H  0.48009334  0.32237459  0.05346760     0.14800
H399        H  0.45455601  0.26856495  0.14711384     0.14800
C400        C  0.41649429  0.27269539  0.12419673    -0.24200
H401        H  0.52171343  0.33389261  0.05927883     0.05000
H402        H  0.52382971  0.30672684  0.06764083     0.08200
H403        H  0.53184029  0.33050883  0.09696872     0.08200
H404        H  0.40309928  0.25804112  0.10851578     0.08200
H405        H  0.41113041  0.28723629  0.12729507     0.08200
H406        H  0.41494457  0.26380082  0.14709752     0.05000
C407        C  0.47391205  0.16440378  0.07530650    -0.20800
C408        C  0.44870046  0.15345533  0.08378976    -0.07400
C409        C  0.44190877  0.16261003  0.10982090     0.13500
C410        C  0.46019110  0.18352338  0.12526495    -0.20900
C411        C  0.48517906  0.19607157  0.11518047    -0.07400
C412        C  0.49227319  0.18575512  0.09038136     0.13500
C413        C  0.01921889  0.19623807  0.08114531    -0.24200
H414        H  0.47906075  0.15712072  0.05551003     0.14800
H415        H  0.45449683  0.19077464  0.14455539     0.14800
C416        C  0.41544913  0.15033112  0.12174046    -0.24200
H417        H  0.02145351  0.18422368  0.06382679     0.05000
H418        H  0.03121159  0.19820987  0.10124413     0.08200
H419        H  0.02571807  0.21462348  0.06999189     0.08200
H420        H  0.40899623  0.13048658  0.12675441     0.08200
H421        H  0.40300720  0.15189328  0.10455221     0.08200
H422        H  0.41387707  0.15902860  0.14348775     0.05000
C423        C  0.05082516  0.32497535  0.27593801    -0.20800
C424        C  0.03753586  0.31991520  0.24826482    -0.07400
C425        C  0.02743738  0.33491514  0.23905257     0.13500
C426        C  0.03195588  0.35550065  0.25719311    -0.20900
C427        C  0.04676645  0.36176629  0.28404122    -0.07400
C428        C  0.05558011  0.34559567  0.29408274     0.13500
C429        C  0.07100920  0.35020841  0.32288444    -0.24200
H430        H  0.05847369  0.31322782  0.28266264     0.14800
H431        H  0.02477250  0.36739828  0.24947885     0.14800
C432        C  0.51112701  0.32897111  0.21091513    -0.24200
H433        H  0.07613322  0.33554646  0.32665836     0.05000
H434        H  0.06024357  0.35020984  0.34353652     0.08200
H435        H  0.08864676  0.36823334  0.32086143     0.08200
H436        H  0.49448084  0.31010705  0.21212923     0.08200
H437        H  0.52272324  0.33008114  0.19058668     0.08200
H438        H  0.50460321  0.34259743  0.20734944     0.05000
C439        C  0.02247212  0.19485323  0.24480354    -0.20800
C440        C  0.03691712  0.22024155  0.25166060    -0.07400
C441        C  0.05240228  0.22756525  0.27809309     0.13500
C442        C  0.05540708  0.20966998  0.29454168    -0.20900
C443        C  0.04332288  0.18463937  0.28532926    -0.07400
C444        C  0.02539823  0.17689293  0.26135988     0.13500
C445        C  0.00919154  0.14983998  0.25313612    -0.24200
H446        H  0.00989930  0.18916095  0.22524514     0.14800
H447        H  0.06839498  0.21559036  0.31367555     0.14800
C448        C  0.56363295  0.25352451  0.29029619    -0.24200
H449        H  0.02053888  0.14236970  0.24267651     0.05000
H450        H  0.99953444  0.13895930  0.27423419     0.08200
H451        H  0.99470477  0.14717603  0.23601452     0.08200
H452        H  0.54963010  0.25964175  0.29347693     0.08200
H453        H  0.08027851  0.26638539  0.27234441     0.08200
H454        H  0.57276695  0.25521315  0.31296626     0.05000
C455        C  0.22549252  0.04277499  0.12329555    -0.20800
C456        C  0.21253300  0.01755892  0.11464235    -0.07400
C457        C  0.19420125  0.01013062  0.09109645     0.13500
C458        C  0.19117940  0.02835125  0.07521191    -0.20900
C459        C  0.20597791  0.05369864  0.08205642    -0.07400
C460        C  0.22253372  0.06087095  0.10736433     0.13500
C461        C  0.23715135  0.08758979  0.11785476    -0.24200
H462        H  0.23901500  0.04872813  0.14181910     0.14800
H463        H  0.17815063  0.02289064  0.05615032     0.14800
C464        C  0.17774990  0.98324803  0.08231264    -0.24200
H465        H  0.24745231  0.08940154  0.13960555     0.05000
H466        H  0.22425633  0.09491762  0.12226892     0.08200
H467        H  0.25113101  0.09922468  0.10008400     0.08200
H468        H  0.16869834  0.47257398  0.10353732     0.08200
H469        H  0.18900183  0.97583417  0.07139783     0.08200
H470        H  0.16330366  0.98096138  0.06533101     0.05000
C471        C  0.31905268  0.04188904  0.12740085    -0.20800
C472        C  0.30604436  0.01713062  0.11720402    -0.07400
C473        C  0.31562221  0.00993357  0.09178325     0.13500
C474        C  0.33680632  0.02809691  0.07596322    -0.20900
C475        C  0.34832408  0.05319491  0.08456411    -0.07400
C476        C  0.33992165  0.06002554  0.11132542     0.13500
C477        C  0.35302368  0.08631270  0.12332969    -0.24200
H478        H  0.31212190  0.04743762  0.14720076     0.14800
H479        H  0.34356075  0.02290107  0.05567485     0.14800
C480        C  0.30376621  0.98330363  0.08109219    -0.24200
H481        H  0.34473524  0.08794829  0.14547415     0.05000
H482        H  0.35176386  0.09916784  0.10645872     0.08200
H483        H  0.37283281  0.09210997  0.12764967     0.08200
H484        H  0.28508385  0.97727722  0.07123914     0.08200
H485        H  0.30209897  0.47048808  0.09942685     0.08200
H486        H  0.31504262  0.98092149  0.06271955     0.05000
C487        C  0.17034706  0.47922586  0.24063770    -0.20800
C488        C  0.18370256  0.46762936  0.25036623    -0.07400
C489        C  0.17685613  0.45375176  0.27820683     0.13500
C490        C  0.15527251  0.44957149  0.29381554    -0.20900
C491        C  0.14013132  0.45877115  0.28233689    -0.07400
C492        C  0.14853774  0.47496299  0.25619111     0.13500
C493        C  0.13470721  0.48756857  0.24405476    -0.24200
H494        H  0.17600559  0.49024768  0.21952973     0.14800
H495        H  0.14962294  0.43791506  0.31437238     0.14800
C496        C  0.19231306  0.44340417  0.29174931    -0.24200
H497        H  0.14528130  0.50108779  0.22529208     0.05000
H498        H  0.13174300  0.49794656  0.26301155     0.08200
H499        H  0.11654167  0.47362422  0.23419183     0.08200
H500        H  0.21293183  0.96251105  0.29581463     0.08200
H501        H  0.19233109  0.42907956  0.27639438     0.08200
H502        H  0.18505372  0.43447221  0.31466252     0.05000
C503        C  0.30560323  0.47662797  0.24474428    -0.20800
C504        C  0.28011171  0.46173082  0.25131469    -0.07400
C505        C  0.27248013  0.44461925  0.27628522     0.13500
C506        C  0.29032374  0.44143730  0.29234605    -0.20900
C507        C  0.31560330  0.45459237  0.28392532    -0.07400
C508        C  0.32351602  0.47322574  0.26062686     0.13500
C509        C  0.35065571  0.48961369  0.25232549    -0.24200
H510        H  0.31142210  0.49000629  0.22589757     0.14800
H511        H  0.28422145  0.42756624  0.31063358     0.14800
C512        C  0.24560176  0.42976107  0.28642582    -0.24200
H513        H  0.35340224  0.50446779  0.23564873     0.05000
H514        H  0.35815137  0.47850949  0.24125663     0.08200
H515        H  0.36148474  0.49874064  0.27348137     0.08200
H516        H  0.23406861  0.41655146  0.26815371     0.08200
H517        H  0.23876493  0.94327968  0.29261997     0.08200
H518        H  0.24357985  0.91911323  0.30810544     0.05000
C519        C  0.12299440  0.35585646  0.10927378    -0.20800
C520        C  0.10471016  0.35160389  0.13146596    -0.07400
C521        C  0.10770054  0.37112997  0.15098676     0.13500
C522        C  0.13060064  0.39331131  0.15104657    -0.20900
C523        C  0.15043369  0.39607913  0.13225071    -0.07400
C524        C  0.14617015  0.37778877  0.10978183     0.13500
C525        C  0.16668139  0.37997015  0.08869406    -0.24200
H526        H  0.12025460  0.34087393  0.09395613     0.14800
H527        H  0.13373906  0.40766912  0.16768788     0.14800
C528        C  0.08714162  0.36810049  0.17264994    -0.24200
H529        H  0.16018462  0.36355441  0.07332743     0.05000
H530        H  0.18237753  0.38135606  0.10266085     0.08200
H531        H  0.17339416  0.39673992  0.07378699     0.08200
H532        H  0.08280545  0.35309891  0.18977488     0.08200
H533        H  0.07012163  0.36336653  0.15910388     0.08200
H534        H  0.09240101  0.38546604  0.18566694     0.05000
C535        C  0.34563617  0.28535742  0.11102963    -0.20800
C536        C  0.35049088  0.29887688  0.08341363    -0.07400
C537        C  0.33601725  0.30985790  0.07548111     0.13500
C538        C  0.31556730  0.30525937  0.09424470    -0.20900
C539        C  0.30921524  0.28987236  0.12071260    -0.07400
C540        C  0.32536286  0.28084853  0.13004088     0.13500
C541        C  0.32098015  0.26541450  0.15892456    -0.24200
H542        H  0.35721363  0.27733876  0.11701212     0.14800
H543        H  0.30379922  0.31281447  0.08731859     0.14800
C544        C  0.34114421  0.32507421  0.04627558    -0.24200
H545        H  0.33565070  0.26021372  0.16219745     0.05000
H546        H  0.30283895  0.24788382  0.15745664     0.08200
H547        H  0.32126784  0.27619887  0.17959404     0.08200
H548        H  0.33986643  0.31366190  0.02581325     0.08200
H549        H  0.36011086  0.34159419  0.04723064     0.08200
H550        H  0.32759880  0.33176857  0.04318203     0.05000
C551        C  0.21636397  0.15697346  0.10846523    -0.20800
C552        C  0.20389794  0.15286919  0.08020929    -0.07400
C553        C  0.19519905  0.16903220  0.07084814     0.13500
C554        C  0.20046855  0.18978336  0.08921963    -0.20900
C555        C  0.21444982  0.19501285  0.11673260    -0.07400
C556        C  0.22165658  0.17761598  0.12699778     0.13500
C557        C  0.23571989  0.18074943  0.15667496    -0.24200
H558        H  0.22292735  0.14437194  0.11544535     0.14800
H559        H  0.19437529  0.20250878  0.08126924     0.14800
C560        C  0.18167249  0.16529195  0.04062753    -0.24200
H561        H  0.23936461  0.16510568  0.16076556     0.05000
H562        H  0.22462034  0.18125106  0.17667140     0.08200
H563        H  0.25408507  0.19808323  0.15567554     0.08200
H564        H  0.16413513  0.14709537  0.04095276     0.08200
H565        H  0.19360630  0.16566137  0.02110122     0.08200
H566        H  0.17675762  0.18004988  0.03642290     0.05000
C567        C  0.29358860  0.34612848  0.29662575    -0.20800
C568        C  0.31810598  0.36043541  0.28522330    -0.07400
C569        C  0.32560898  0.35113575  0.25966183     0.13500
C570        C  0.30794880  0.32913754  0.24501612    -0.20900
C571        C  0.28298028  0.31649348  0.25466660    -0.07400
C572        C  0.27593818  0.32449766  0.28155484     0.13500
C573        C  0.24977484  0.31031857  0.29442876    -0.24200
H574        H  0.28767469  0.35255952  0.31655032     0.14800
H575        H  0.31327366  0.32275150  0.22450000     0.14800
C576        C  0.35189158  0.36427246  0.24703739    -0.24200
H577        H  0.24789722  0.31840426  0.31653538     0.05000
H578        H  0.24487120  0.29075937  0.29902395     0.08200
H579        H  0.23627360  0.31069917  0.27790559     0.08200
H580        H  0.36527263  0.36739860  0.26591723     0.08200
H581        H  0.35618341  0.38227947  0.23629077     0.08200
H582        H  0.35460610  0.35317652  0.22881306     0.05000
C583        C  0.15536224  0.20154774  0.29546511    -0.20800
C584        C  0.13754483  0.17984568  0.28028509    -0.07400
C585        C  0.14387899  0.17424909  0.25071431     0.13500
C586        C  0.16634207  0.19158465  0.23631236    -0.20900
C587        C  0.18259588  0.21423232  0.25039610    -0.07400
C588        C  0.17768883  0.21876778  0.28085210     0.13500
C589        C  0.19598882  0.24186294  0.29787016    -0.24200
H590        H  0.15147714  0.20568619  0.31852233     0.14800
H591        H  0.17049892  0.18816973  0.21299011     0.14800
C592        C  0.12708580  0.15066551  0.23336418    -0.24200
H593        H  0.18972532  0.24211982  0.32194539     0.05000
H594        H  0.19824226  0.25868893  0.28577503     0.08200
H595        H  0.21432178  0.24262955  0.29898340     0.08200
H596        H  0.10935040  0.15008719  0.22737317     0.08200
H597        H  0.12334622  0.13421472  0.24765470     0.08200
H598        H  0.13569529  0.14939228  0.21130226     0.05000
C599        C  0.23558814  0.37856164  0.11266043    -0.20800
C600        C  0.24621277  0.39542036  0.13712091    -0.07400
C601        C  0.26006861  0.39111231  0.15985670     0.13500
C602        C  0.25995152  0.36842352  0.16008436    -0.20900
C603        C  0.24650599  0.35008202  0.13799500    -0.07400
C604        C  0.23561204  0.35581927  0.11280064     0.13500
C605        C  0.22220489  0.33723054  0.08755398    -0.24200
H606        H  0.22526574  0.38210115  0.09504020     0.14800
H607        H  0.26883812  0.36422124  0.17894321     0.14800
C608        C  0.27410163  0.40996938  0.18472581    -0.24200
H609        H  0.21420698  0.34449247  0.07012685     0.05000
H610        H  0.20674471  0.31994331  0.09766087     0.08200
H611        H  0.23542938  0.33283027  0.07543836     0.08200
H612        H  0.26099469  0.41226349  0.20009354     0.08200
H613        H  0.28725959  0.42814803  0.17388910     0.08200
H614        H  0.28505518  0.40417346  0.19945651     0.05000
C615        C  0.15024467  0.27130340  0.11358196    -0.20800
C616        C  0.15277119  0.25580081  0.13526826    -0.07400
C617        C  0.13183347  0.23875366  0.15278570     0.13500
C618        C  0.10974632  0.23983018  0.15100548    -0.20900
C619        C  0.10837880  0.25779026  0.13255753    -0.07400
C620        C  0.12836728  0.27288587  0.11243649     0.13500
C621        C  0.12773213  0.29248005  0.09231026    -0.24200
H622        H  0.16630039  0.28415302  0.09997031     0.14800
H623        H  0.09420389  0.22808377  0.16609737     0.14800
C624        C  0.13304662  0.22010631  0.17423005    -0.24200
H625        H  0.14523686  0.30313932  0.07871809     0.05000
H626        H  0.12533323  0.30582749  0.10703292     0.08200
H627        H  0.11200481  0.28358457  0.07581173     0.08200
H628        H  0.14642416  0.22967013  0.19323699     0.08200
H629        H  0.13898535  0.20854361  0.16100330     0.08200
H630        H  0.11461882  0.20747661  0.18497895     0.05000
Fe631      Fe  0.21594334  0.28366155  0.69837796     1.65800
Fe632      Fe  0.24862126  0.25307257  0.68971642     1.73200
Fe633      Fe  0.23053042  0.27309152  0.62560696     1.54400
O634        O  0.19361488  0.26480352  0.62510182    -0.82200
O635        O  0.28028144  0.27325451  0.66344301    -0.80500
O636        O  0.18340008  0.26707820  0.67403339    -0.84700
O637        O  0.22933661  0.31601871  0.67292283    -0.79500
O638        O  0.21826228  0.23580405  0.61872951    -0.81300
O639        O  0.26597558  0.27959257  0.72420442    -0.84100
C640        C  0.23927126  0.32414553  0.64657466     0.96700
C641        C  0.17786433  0.26233751  0.64574847     1.04100
O642        O  0.23176414  0.26999659  0.67117847    -1.13000
O643        O  0.21838314  0.23043794  0.71761185    -0.75500
O644        O  0.20030872  0.25317759  0.72737208    -0.79000
O645        O  0.24256285  0.31083493  0.62689108    -0.79700
C646        C  0.20194677  0.23372637  0.73099983     0.95600
O647        O  0.24661823  0.30181673  0.72571218    -0.77600
O648        O  0.23421509  0.22471658  0.65748780    -0.82800
C649        C  0.28409424  0.28136960  0.63585507     0.98200
C650        C  0.22256853  0.22000849  0.63204085     1.04100
O651        O  0.26717056  0.28172209  0.61959433    -0.78500
C652        C  0.26376822  0.29768339  0.73428514     1.02400
Fe653      Fe  0.21290453  0.43004535  0.69425415     1.65800
Fe654      Fe  0.24695449  0.99324191  0.68617278     1.73200
Fe655      Fe  0.22820161  0.45550480  0.62203069     1.54400
O656        O  0.24113314  0.43023075  0.62370655    -0.82200
O657        O  0.23246476  0.00773038  0.65431541    -0.80500
O658        O  0.22515328  0.41046024  0.66837579    -0.84700
O659        O  0.18021845  0.41591489  0.67049322    -0.79500
O660        O  0.26447552  0.48341951  0.61530468    -0.81300
O661        O  0.21773116  0.48622917  0.71567145    -0.84100
C662        C  0.17526058  0.41447897  0.64194221     0.96700
C663        C  0.23703696  0.41328633  0.64334733     1.04100
O664        O  0.22947012  0.45956614  0.66755505    -1.13000
O665        O  0.26402209  0.98297341  0.72017646    -0.75500
O666        O  0.24365949  0.44110631  0.72100200    -0.79000
O667        O  0.19151134  0.42696051  0.62147961    -0.79700
C668        C  0.26130590  0.46178635  0.72987997     0.95600
O669        O  0.19864463  0.44542780  0.72395475    -0.77600
O670        O  0.27837727  0.00414060  0.65954168    -0.82800
C671        C  0.21999311  0.00073147  0.62934826     0.98200
C672        C  0.28176894  0.00014430  0.63163688     1.04100
O673        O  0.21546951  0.48049081  0.61600719    -0.78500
C674        C  0.20133603  0.46668544  0.72916042     1.02400
Fe675      Fe  0.07148519  0.28684261  0.69349453     1.65800
Fe676      Fe  0.50880845  0.25562214  0.68567409     1.73200
Fe677      Fe  0.04613047  0.27371907  0.62116664     1.54400
O678        O  0.07053716  0.31153090  0.62090443    -0.82200
O679        O  0.49557742  0.22587605  0.65572980    -0.80500
O680        O  0.08931576  0.31827211  0.66667288    -0.84700
O681        O  0.08784228  0.26986075  0.67035561    -0.79500
O682        O  0.01789690  0.28174838  0.61425223    -0.81300
O683        O  0.01659860  0.23463861  0.71646502    -0.84100
C684        C  0.08894844  0.26469545  0.64227711     0.96700
C685        C  0.08652740  0.32565249  0.64039608     1.04100
O686        O  0.04198832  0.27195475  0.66685036    -1.13000
O687        O  0.01718722  0.28326943  0.71840957    -0.75500
O688        O  0.05862388  0.30545649  0.71969372    -0.79000
O689        O  0.07540283  0.26623230  0.62135432    -0.79700
C690        C  0.03732876  0.30161151  0.72781582     0.95600
O691        O  0.05741224  0.25762522  0.72404238    -0.77600
O692        O  0.49627532  0.27394170  0.65747774    -0.82800
C693        C  0.50206207  0.22074704  0.63003058     0.98200
C694        C  0.50109349  0.28228660  0.62997412     1.04100
O695        O  0.02179974  0.23620916  0.61606376    -0.78500
C696        C  0.03649253  0.23878799  0.73003775     1.02400
Fe697      Fe  0.23943828  0.12074861  0.52473557     1.65800
Fe698      Fe  0.17630851  0.08882167  0.51703295     1.73200
Fe699      Fe  0.21394231  0.10707869  0.95192099     1.54400
O700        O  0.24208510  0.14408230  0.95123725    -0.82200
O701        O  0.16429729  0.05717008  0.98929016    -0.80500
O702        O  0.25612904  0.15298434  0.49975855    -0.84700
O703        O  0.25669533  0.10557010  0.49989380    -0.79500
O704        O  0.18862081  0.11927376  0.94598785    -0.81300
O705        O  0.18522111  0.06945978  0.54942105    -0.84100
C706        C  0.25486480  0.09590509  0.97278208     0.96700
C707        C  0.25544930  0.15933215  0.97194834     1.04100
O708        O  0.20990511  0.10565443  0.49792361    -1.13000
O709        O  0.18456240  0.11793735  0.54736988    -0.75500
O710        O  0.22578754  0.13762317  0.55303430    -0.79000
O711        O  0.23937211  0.09443540  0.95255004    -0.79700
C712        C  0.20459345  0.13506799  0.55897053     0.95600
O713        O  0.22649129  0.09052551  0.55330818    -0.77600
O714        O  0.16263840  0.10402051  0.98618209    -0.82800
C715        C  0.16908779  0.05359623  0.96173063     0.98200
C716        C  0.16904825  0.11541566  0.96032155     1.04100
O717        O  0.18638304  0.07068254  0.94578410    -0.78500
C718        C  0.20548176  0.07246618  0.56076157     1.02400
Fe719      Fe  0.38158830  0.11943266  0.52750904     1.65800
Fe720      Fe  0.41423800  0.08856720  0.52192659     1.73200
Fe721      Fe  0.39604012  0.10677875  0.95511044     1.54400
O722        O  0.35823650  0.09459738  0.95391678    -0.82200
O723        O  0.44424382  0.10544198  0.99280178    -0.80500
O724        O  0.34934374  0.10253152  0.50237893    -0.84700
O725        O  0.39586726  0.15129107  0.50156735    -0.79500
O726        O  0.38723472  0.07027867  0.94951589    -0.81300
O727        O  0.43261341  0.11690384  0.55390865    -0.84100
C728        C  0.40499669  0.15873297  0.97369206     0.96700
C729        C  0.34324278  0.09519132  0.97356117     1.04100
O730        O  0.39729504  0.10483643  0.50170973    -1.13000
O731        O  0.38484680  0.06787219  0.55210239    -0.75500
O732        O  0.36534985  0.08973082  0.55724709    -0.79000
O733        O  0.40500912  0.14377733  0.95372035    -0.79700
C734        C  0.36792035  0.07123901  0.56394954     0.95600
O735        O  0.41201303  0.13788595  0.55534545    -0.77600
O736        O  0.39655854  0.05766407  0.99306823    -0.82800
C737        C  0.44939193  0.11646389  0.96670812     0.98200
C738        C  0.38823300  0.05364139  0.96564300     1.04100
O739        O  0.43346385  0.11884294  0.95089569    -0.78500
C740        C  0.42982342  0.13470331  0.56373180     1.02400
Fe741      Fe  0.38284057  0.26430457  0.52725765     1.65800
Fe742      Fe  0.41424703  0.32712204  0.51986710     1.73200
Fe743      Fe  0.39641077  0.29045556  0.95434303     1.54400
O744        O  0.40524859  0.26226232  0.95438145    -0.82200
O745        O  0.39634031  0.34003071  0.99165429    -0.80500
O746        O  0.40221193  0.25004509  0.50515753    -0.84700
O747        O  0.35245689  0.24524694  0.49893142    -0.79500
O748        O  0.43376387  0.31506062  0.94899983    -0.81300
O749        O  0.38691500  0.31755855  0.55362834    -0.84100
C750        C  0.34479399  0.24823962  0.97272849     0.96700
C751        C  0.40734833  0.24900325  0.97529120     1.04100
O752        O  0.39763994  0.29395717  0.50080178    -1.13000
O753        O  0.43573943  0.31866885  0.54831524    -0.75500
O754        O  0.41088472  0.27868258  0.55938377    -0.79000
O755        O  0.35873499  0.26522343  0.95388188    -0.79700
C756        C  0.43080845  0.29908743  0.56321178     0.95600
O757        O  0.36259690  0.27626238  0.55196754    -0.77600
O758        O  0.44453393  0.34054837  0.98921884    -0.82800
C759        C  0.38778046  0.33535235  0.96434217     0.98200
C760        C  0.44966772  0.33387800  0.96372021     1.04100
O761        O  0.38754745  0.31819356  0.94811086    -0.78500
C762        C  0.36762823  0.29749894  0.56181022     1.02400
Fe763      Fe  0.40444622  0.45316392  0.85937355     1.65800
Fe764      Fe  0.34118195  0.42083624  0.85373494     1.73200
Fe765      Fe  0.37780516  0.43878229  0.78774905     1.54400
O766        O  0.40260497  0.47683070  0.78630705    -0.82200
O767        O  0.32773317  0.39044348  0.82451536    -0.80500
O768        O  0.42087385  0.48455961  0.83242012    -0.84700
O769        O  0.42084595  0.43665326  0.83557188    -0.79500
O770        O  0.34959526  0.44703647  0.78159956    -0.81300
O771        O  0.35059190  0.40109283  0.88444209    -0.84100
C772        C  0.42064574  0.42956512  0.80809781     0.96700
C773        C  0.41811902  0.49158837  0.80587728     1.04100
O774        O  0.37440409  0.43757288  0.83357667    -1.13000
O775        O  0.35021471  0.44944868  0.88514332    -0.75500
O776        O  0.39168707  0.47132586  0.88657673    -0.79000
O777        O  0.40651895  0.43031948  0.78736565    -0.79700
C778        C  0.37046544  0.46769525  0.89459518     0.95600
O779        O  0.39167510  0.42398652  0.88972864    -0.77600
O780        O  0.32768949  0.43819692  0.82544077    -0.82800
C781        C  0.33419571  0.38531142  0.79878331     0.98200
C782        C  0.33218482  0.44645113  0.79787695     1.04100
O783        O  0.35310261  0.40122237  0.78370778    -0.78500
C784        C  0.37095809  0.40521403  0.89657352     1.02400
Fe785      Fe  0.04912176  0.45228652  0.86272931     1.65800
Fe786      Fe  0.08158352  0.42150114  0.85408707     1.73200
Fe787      Fe  0.06101001  0.43909984  0.78980138     1.54400
O788        O  0.02326967  0.42690989  0.79105982    -0.82200
O789        O  0.11120177  0.43917165  0.82385109    -0.80500
O790        O  0.01664976  0.43716546  0.83812387    -0.84700
O791        O  0.06413830  0.48464945  0.83782884    -0.79500
O792        O  0.05207185  0.40258892  0.78363211    -0.81300
O793        O  0.10171647  0.45027591  0.88471495    -0.84100
C794        C  0.07051868  0.49099501  0.80995099     0.96700
C795        C  0.00907592  0.42785250  0.81160986     1.04100
O796        O  0.06392123  0.43761354  0.83549023    -1.13000
O797        O  0.05375381  0.40150743  0.88637303    -0.75500
O798        O  0.03244214  0.42168576  0.89068482    -0.79000
O799        O  0.06966254  0.47600513  0.78938116    -0.79700
C800        C  0.03612429  0.40394822  0.89775295     0.95600
O801        O  0.07950799  0.46930062  0.89107669    -0.77600
O802        O  0.06417449  0.39095895  0.82574894    -0.82800
C803        C  0.11511130  0.44974572  0.79755759     0.98200
C804        C  0.05441135  0.38643396  0.79912762     1.04100
O805        O  0.09823845  0.45130290  0.78285457    -0.78500
C806        C  0.09827542  0.46695824  0.89692586     1.02400
Fe807      Fe  0.04596397  0.09642768  0.86063539     1.65800
Fe808      Fe  0.07959825  0.15953180  0.85259841     1.73200
Fe809      Fe  0.05779334  0.12202582  0.78807454     1.54400
O810        O  0.06602487  0.09335136  0.78676458    -0.82200
O811        O  0.06205716  0.17365949  0.82529717    -0.80500
O812        O  0.06014871  0.07860806  0.83501496    -0.84700
O813        O  0.01318856  0.08011962  0.83641821    -0.79500
O814        O  0.09518284  0.14643323  0.78078736    -0.81300
O815        O  0.05243998  0.15206022  0.88605481    -0.84100
C816        C  0.00555382  0.08201666  0.80992468     0.96700
C817        C  0.06641788  0.07871663  0.80707419     1.04100
O818        O  0.06109995  0.12603199  0.83373589    -1.13000
O819        O  0.09971938  0.14966789  0.88215046    -0.75500
O820        O  0.07667513  0.10870830  0.88833825    -0.79000
O821        O  0.01985182  0.09701822  0.78937002    -0.79700
C822        C  0.09588649  0.12930218  0.89411086     0.95600
O823        O  0.03015714  0.11077301  0.88959372    -0.77600
O824        O  0.10896633  0.17134816  0.82155230    -0.82800
C825        C  0.05148653  0.16827064  0.79905516     0.98200
C826        C  0.11248215  0.16461854  0.79508439     1.04100
O827        O  0.04913253  0.15000681  0.78323359    -0.78500
C828        C  0.03469741  0.13225139  0.89757765     1.02400
C829        C  0.09098568  0.05830062  0.81772188    -0.20800
C830        C  0.07361053  0.06011706  0.79868710    -0.07400
C831        C  0.05945916  0.04088827  0.77753264     0.13500
C832        C  0.06103783  0.01901957  0.77845391    -0.20900
C833        C  0.07584500  0.01594691  0.80064026    -0.07400
C834        C  0.09222839  0.03634675  0.81907522     0.13500
C835        C  0.11029710  0.03469111  0.84106276    -0.24200
H836        H  0.10210288  0.07334667  0.83352450     0.14800
H837        H  0.05058761  0.50402805  0.76413705     0.14800
C838        C  0.04094557  0.04235248  0.75625639    -0.24200
H839        H  0.12248615  0.05280796  0.85246086     0.05000
H840        H  0.12241358  0.02926012  0.82810750     0.08200
H841        H  0.10020667  0.02082063  0.85960733     0.08200
H842        H  0.05078447  0.05865041  0.74056085     0.08200
H843        H  0.02677056  0.04427497  0.77003041     0.08200
H844        H  0.03104972  0.02542487  0.74175175     0.05000
C845        C  0.43941665  0.03609006  0.82415553    -0.20800
C846        C  0.43522558  0.01951466  0.79978985    -0.07400
C847        C  0.45143313  0.02783671  0.77389415     0.13500
C848        C  0.47416709  0.05033208  0.77610566    -0.20900
C849        C  0.48033286  0.06452191  0.80333471    -0.07400
C850        C  0.46183947  0.05856209  0.82629330     0.13500
C851        C  0.46604503  0.07523796  0.85374387    -0.24200
H852        H  0.42619953  0.03024573  0.84324316     0.14800
H853        H  0.48797816  0.05559777  0.75782033     0.14800
C854        C  0.44553567  0.01255089  0.74489286    -0.24200
H855        H  0.44889975  0.06844365  0.86809782     0.05000
H856        H  0.47150529  0.09429651  0.84554231     0.08200
H857        H  0.48081185  0.07598053  0.86892886     0.08200
H858        H  0.42806132  0.50765791  0.73403556     0.08200
H859        H  0.44380795  0.49254830  0.75080817     0.08200
H860        H  0.46042612  0.02177383  0.72710233     0.05000
C861        C  0.44184175  0.40651406  0.82347120    -0.20800
C862        C  0.43862246  0.42106808  0.80094339    -0.07400
C863        C  0.45627941  0.43173739  0.77668220     0.13500
C864        C  0.47854268  0.43086732  0.77830643    -0.20900
C865        C  0.48335503  0.41981934  0.80377713    -0.07400
C866        C  0.46408125  0.40577223  0.82522055     0.13500
C867        C  0.46726096  0.39077579  0.85059569    -0.24200
H868        H  0.42781893  0.39752757  0.84142780     0.14800
H869        H  0.49325045  0.44116752  0.76152675     0.14800
C870        C  0.45298709  0.44623350  0.75097626    -0.24200
H871        H  0.44980020  0.37991190  0.86418641     0.05000
H872        H  0.98183253  0.40354853  0.86792399     0.08200
H873        H  0.47235139  0.37746612  0.84026230     0.08200
H874        H  0.45212161  0.46221371  0.76099686     0.08200
H875        H  0.43552342  0.43410638  0.73825592     0.08200
H876        H  0.46872065  0.45357139  0.73415195     0.05000
C877        C  0.39092449  0.37665840  0.95988596    -0.20800
C878        C  0.37932764  0.35174953  0.95023838    -0.07400
C879        C  0.36140439  0.34384718  0.92625340     0.13500
C880        C  0.35754605  0.36157428  0.91064074    -0.20900
C881        C  0.37124227  0.38687972  0.91821376    -0.07400
C882        C  0.38719132  0.39433972  0.94417614     0.13500
C883        C  0.40036127  0.42087304  0.95551819    -0.24200
H884        H  0.40408907  0.38270609  0.97883474     0.14800
H885        H  0.34488247  0.35584548  0.89116717     0.14800
C886        C  0.34625785  0.31692347  0.91687928    -0.24200
H887        H  0.41021007  0.42274758  0.97767399     0.05000
H888        H  0.38657819  0.42715847  0.95952825     0.08200
H889        H  0.41455312  0.43333046  0.93844373     0.08200
H890        H  0.33679409  0.30523865  0.93752803     0.08200
H891        H  0.35837862  0.31058212  0.90587084     0.08200
H892        H  0.33166641  0.31404407  0.89980947     0.05000
C893        C  0.98860236  0.37384489  0.96140247    -0.20800
C894        C  0.47478270  0.34980845  0.94991165    -0.07400
C895        C  0.48442432  0.34227487  0.92475457     0.13500
C896        C  0.50622289  0.36010393  0.90963455    -0.20900
C897        C  0.01801556  0.38490925  0.91897162    -0.07400
C898        C  0.01004327  0.39164308  0.94609215     0.13500
C899        C  0.02409631  0.41759050  0.95909855    -0.24200
H900        H  0.98216589  0.37957393  0.98149070     0.14800
H901        H  0.51281196  0.35492150  0.88917077     0.14800
C902        C  0.47197232  0.31581761  0.91325299    -0.24200
H903        H  0.01603379  0.41913418  0.98146628     0.05000
H904        H  0.02362010  0.43127621  0.94291730     0.08200
H905        H  0.04365686  0.42240038  0.96331340     0.08200
H906        H  0.45380222  0.31075208  0.90248279     0.08200
H907        H  0.46921798  0.30295993  0.93276450     0.08200
H908        H  0.48343685  0.31321411  0.89534512     0.05000
C909        C  0.50655314  0.14715462  0.91395321    -0.20800
C910        C  0.01750288  0.13358649  0.92022501    -0.07400
C911        C  0.00975003  0.11831850  0.94694222     0.13500
C912        C  0.98858378  0.11474682  0.96313662    -0.20900
C913        C  0.47444206  0.12499208  0.95312263    -0.07400
C914        C  0.48527819  0.14383461  0.93004732     0.13500
C915        C  0.47458122  0.16036476  0.92194933    -0.24200
H916        H  0.51402752  0.16045621  0.89502833     0.14800
H917        H  0.98195792  0.10189633  0.98256405     0.14800
C918        C  0.02388876  0.10596770  0.95872824    -0.24200
H919        H  0.48688678  0.17544402  0.90564537     0.05000
H920        H  0.47248683  0.16921406  0.94324454     0.08200
H921        H  0.45626027  0.14946206  0.91049395     0.08200
H922        H  0.04337482  0.12053696  0.96327738     0.08200
H923        H  0.02356051  0.09241545  0.94172944     0.08200
H924        H  0.01587664  0.09571786  0.98074879     0.05000
C925        C  0.38216747  0.49084472  0.94360359    -0.20800
C926        C  0.37003190  0.48637293  0.91508284    -0.07400
C927        C  0.36193167  0.50262731  0.90427712     0.13500
C928        C  0.36547451  0.02297028  0.92392873    -0.20900
C929        C  0.38003758  0.02896314  0.95098636    -0.07400
C930        C  0.38824495  0.01239114  0.96128132     0.13500
C931        C  0.40392125  0.01714843  0.98986729    -0.24200
H932        H  0.38855856  0.47829069  0.95138687     0.14800
H933        H  0.35889187  0.03528843  0.91589772     0.14800
C934        C  0.34964417  0.49887428  0.87311324    -0.24200
H935        H  0.40897909  0.00244178  0.99365546     0.05000
H936        H  0.39339698  0.01738978  0.01063767     0.08200
H937        H  0.42156862  0.03513991  0.98752429     0.08200
H938        H  0.33208808  0.48070707  0.87273864     0.08200
H939        H  0.36235452  0.49916560  0.85462319     0.08200
H940        H  0.34501756  0.51368725  0.86781295     0.05000
C941        C  0.42972090  0.20333055  0.98530027    -0.20800
C942        C  0.41315107  0.18471517  0.96524980    -0.07400
C943        C  0.40040564  0.19060510  0.94264761     0.13500
C944        C  0.40198442  0.21398493  0.94335829    -0.20900
C945        C  0.41521636  0.23093452  0.96689177    -0.07400
C946        C  0.43087301  0.22648500  0.98648704     0.13500
C947        C  0.44799539  0.24565554  0.00944351    -0.24200
H948        H  0.44001916  0.19892295  0.00203165     0.14800
H949        H  0.39028093  0.21768159  0.92810856     0.14800
C950        C  0.38252619  0.17130240  0.92064604    -0.24200
H951        H  0.45989767  0.23952452  0.02150243     0.05000
H952        H  0.43725098  0.24833593  0.52896118     0.08200
H953        H  0.46043773  0.26336292  0.99713805     0.08200
H954        H  0.36626281  0.15561782  0.43617190     0.08200
H955        H  0.39233295  0.16376769  0.90656180     0.08200
H956        H  0.37400907  0.17900409  0.90459634     0.05000
C957        C  0.12702419  0.11101848  0.95635484    -0.20800
C958        C  0.15182846  0.12278351  0.94563546    -0.07400
C959        C  0.15861389  0.13958030  0.92020304     0.13500
C960        C  0.14010713  0.14254960  0.90510333    -0.20900
C961        C  0.11503802  0.12902529  0.91434471    -0.07400
C962        C  0.10860821  0.11378747  0.94106660     0.13500
C963        C  0.08249141  0.10074457  0.95411242    -0.24200
H964        H  0.12160212  0.09862140  0.97619911     0.14800
H965        H  0.14504510  0.15453082  0.88487584     0.14800
C966        C  0.18507642  0.15437085  0.90847232    -0.24200
H967        H  0.08126062  0.09100391  0.97624804     0.05000
H968        H  0.06935228  0.08657962  0.93774978     0.08200
H969        H  0.07672838  0.11474117  0.95883004     0.08200
H970        H  0.19110410  0.14178152  0.89817889     0.08200
H971        H  0.19763536  0.16510062  0.92775754     0.08200
H972        H  0.18700616  0.16784725  0.89013648     0.05000
C973        C  0.12898381  0.01366764  0.95998754    -0.20800
C974        C  0.15277368  0.02895776  0.94703403    -0.07400
C975        C  0.15936496  0.02100954  0.91941283     0.13500
C976        C  0.14145652  0.99926287  0.90463101    -0.20900
C977        C  0.11751517  0.48568920  0.91725439    -0.07400
C978        C  0.11139346  0.49228336  0.94590955     0.13500
C979        C  0.08623952  0.47651137  0.96085802    -0.24200
H980        H  0.12396037  0.51917058  0.98243161     0.14800
H981        H  0.14602448  0.99383425  0.88276605     0.14800
C982        C  0.18491922  0.03527276  0.90481468    -0.24200
H983        H  0.08496310  0.48386469  0.98382863     0.05000
H984        H  0.08314703  0.45742716  0.96435819     0.08200
H985        H  0.07125762  0.47587450  0.94616393     0.08200
H986        H  0.19938109  0.03823023  0.92210402     0.08200
H987        H  0.18811330  0.05341494  0.89573085     0.08200
H988        H  0.18707358  0.02508986  0.88495762     0.05000
C989        C  0.29103230  0.18987147  0.94072565    -0.20800
C990        C  0.27327541  0.18536372  0.96386164    -0.07400
C991        C  0.27703695  0.20475493  0.98424483     0.13500
C992        C  0.30007554  0.22669531  0.98419128    -0.20900
C993        C  0.31922296  0.22982297  0.96395953    -0.07400
C994        C  0.31422450  0.21186845  0.94067364     0.13500
C995        C  0.33348365  0.21395117  0.91744679    -0.24200
H996        H  0.28802216  0.17507249  0.92487980     0.14800
H997        H  0.30374587  0.24068469  0.00162601     0.14800
C998        C  0.25760259  0.20222448  0.00748600    -0.24200
H999        H  0.32633136  0.21309356  0.89366632     0.08600
H1000       H  0.33709391  0.19820610  0.92068871     0.08200
H1001       H  0.35150387  0.23141613  0.91931994     0.08200
H1002       H  0.26542177  0.20243242  0.53272883     0.08200
H1003       H  0.23965896  0.18468706  0.00467499     0.08200
H1004       H  0.25377450  0.21783780  0.00441968     0.05000
C1005       C  0.28716966  0.09445917  0.94003749    -0.20800
C1006       C  0.27184524  0.08617116  0.96646044    -0.07400
C1007       C  0.27623059  0.07263685  0.49053634     0.13500
C1008       C  0.29886849  0.07269892  0.49027715    -0.20900
C1009       C  0.31684188  0.08564514  0.96569271    -0.07400
C1010       C  0.30958028  0.09375875  0.93908419     0.13500
C1011       C  0.32571654  0.10260205  0.91049137    -0.24200
H1012       H  0.28275705  0.10337753  0.92142005     0.14800
H1013       H  0.30365133  0.06486048  0.50980677     0.14800
C1014       C  0.25772890  0.05913836  0.51629781    -0.24200
H1015       H  0.31738139  0.10881060  0.89221413     0.05000
H1016       H  0.32792505  0.08713209  0.90103612     0.08200
H1017       H  0.34433623  0.11829200  0.91595797     0.08200
H1018       H  0.23923616  0.04613633  0.50628645     0.08200
H1019       H  0.25598570  0.07242099  0.53181452     0.08200
H1020       H  0.26352967  0.04806521  0.53081540     0.05000
C1021       C  0.47434113  0.31035455  0.57350352    -0.20800
C1022       C  0.44965710  0.29920289  0.58411288    -0.07400
C1023       C  0.44310078  0.28589233  0.61240807     0.13500
C1024       C  0.46089885  0.28216876  0.62782874    -0.20900
C1025       C  0.48495130  0.29096940  0.61546117    -0.07400
C1026       C  0.49210099  0.30632988  0.58859076     0.13500
C1027       C  0.51813476  0.31836888  0.57521590    -0.24200
H1028       H  0.47937267  0.32095991  0.55200687     0.14800
H1029       H  0.45542296  0.27105409  0.64890511     0.14800
C1030       C  0.41741202  0.27552224  0.62644755    -0.24200
H1031       H  0.52065344  0.33140313  0.55599951     0.05000
H1032       H  0.52202268  0.30403610  0.56554614     0.08200
H1033       H  0.53192515  0.32917969  0.59340550     0.08200
H1034       H  0.40330534  0.26049964  0.61177567     0.08200
H1035       H  0.41271810  0.29059214  0.62889468     0.08200
H1036       H  0.41626820  0.26742584  0.64979628     0.05000
C1037       C  0.47392927  0.16406628  0.57662729    -0.20800
C1038       C  0.44863194  0.15348942  0.58453923    -0.07400
C1039       C  0.44167360  0.16305904  0.61000050     0.13500
C1040       C  0.45991498  0.18403909  0.62537932    -0.20900
C1041       C  0.48501710  0.19619135  0.61579227    -0.07400
C1042       C  0.49225506  0.18545857  0.59167175     0.13500
C1043       C  0.01844554  0.19807265  0.57838821    -0.24200
H1044       H  0.47920254  0.15645706  0.55729344     0.14800
H1045       H  0.45413902  0.19168443  0.64415105     0.14800
C1046       C  0.41506570  0.15119133  0.62132719    -0.24200
H1047       H  0.02053537  0.18661390  0.56011278     0.05000
H1048       H  0.03115199  0.20000839  0.59762159     0.08200
H1049       H  0.02416163  0.21655001  0.56795433     0.08200
H1050       H  0.40823227  0.13132309  0.62670362     0.08200
H1051       H  0.40299403  0.15282583  0.60363902     0.08200
H1052       H  0.41335804  0.16016692  0.64274109     0.05000
C1053       C  0.05088860  0.32536447  0.77599854    -0.20800
C1054       C  0.03666786  0.31975720  0.74904706    -0.07400
C1055       C  0.02575225  0.33420543  0.74064362     0.13500
C1056       C  0.03053299  0.35492005  0.75871269    -0.20900
C1057       C  0.04633158  0.36177141  0.78468068    -0.07400
C1058       C  0.05591168  0.34609661  0.79402412     0.13500
C1059       C  0.07254310  0.35146023  0.82180338    -0.24200
H1060       H  0.05913018  0.31401927  0.78212946     0.14800
H1061       H  0.02276620  0.36646328  0.75161394     0.14800
C1062       C  0.51364997  0.33076221  0.70909580    -0.24200
H1063       H  0.07835896  0.33724673  0.82495811     0.05000
H1064       H  0.06243015  0.35135235  0.84316775     0.08200
H1065       H  0.08977379  0.36974120  0.81889423     0.08200
H1066       H  0.49654109  0.31221420  0.70962360     0.08200
H1067       H  0.52571842  0.33153228  0.68949045     0.08200
H1068       H  0.50797809  0.34496305  0.70484182     0.05000
C1069       C  0.02139338  0.19506454  0.74589982    -0.20800
C1070       C  0.03602399  0.22046602  0.75249396    -0.07400
C1071       C  0.05195146  0.22786424  0.77852694     0.13500
C1072       C  0.05529382  0.21002916  0.79458024    -0.20900
C1073       C  0.04307604  0.18496576  0.78545166    -0.07400
C1074       C  0.02460260  0.17714773  0.76209897     0.13500
C1075       C  0.00816701  0.15010626  0.75394767    -0.24200
H1076       H  0.00847559  0.18931078  0.72669878     0.14800
H1077       H  0.06863478  0.21605227  0.81332672     0.14800
C1078       C  0.56591848  0.25434896  0.78883240    -0.24200
H1079       H  0.01921751  0.14269762  0.74249710     0.05000
H1080       H  0.99908762  0.13915892  0.77522130     0.08200
H1081       H  0.99319665  0.14746336  0.73762917     0.08200
H1082       H  0.55236511  0.26100829  0.79228305     0.08200
H1083       H  0.07993870  0.26666826  0.77271331     0.08200
H1084       H  0.57546591  0.25620622  0.81122623     0.05000
C1085       C  0.22448470  0.04278539  0.62397757    -0.20800
C1086       C  0.21222200  0.01771791  0.61465855    -0.07400
C1087       C  0.19425071  0.01030534  0.59065162     0.13500
C1088       C  0.19104893  0.02846774  0.57490678    -0.20900
C1089       C  0.20527790  0.05375151  0.58235578    -0.07400
C1090       C  0.22132563  0.06083258  0.60819185     0.13500
C1091       C  0.23519608  0.08739938  0.61937887    -0.24200
H1092       H  0.23764333  0.04869268  0.64291142     0.14800
H1093       H  0.17837702  0.02304823  0.55546554     0.14800
C1094       C  0.17837652  0.98349698  0.58118620    -0.24200
H1095       H  0.24509996  0.08909041  0.64143804     0.05000
H1096       H  0.22185751  0.09422950  0.62350571     0.08200
H1097       H  0.24942573  0.09952963  0.60213521     0.08200
H1098       H  0.16776334  0.47258865  0.60499899     0.08200
H1099       H  0.19008777  0.97659166  0.57033330     0.08200
H1100       H  0.16408588  0.98116503  0.56393513     0.05000
C1101       C  0.31995739  0.04119373  0.62784517    -0.20800
C1102       C  0.30640393  0.01661845  0.61711608    -0.07400
C1103       C  0.31584167  0.00932885  0.59161779     0.13500
C1104       C  0.33732238  0.02733456  0.57609691    -0.20900
C1105       C  0.34930065  0.05235701  0.58511651    -0.07400
C1106       C  0.34114614  0.05916205  0.61212363     0.13500
C1107       C  0.35479737  0.08526365  0.62472712    -0.24200
H1108       H  0.31321910  0.04679833  0.64777900     0.14800
H1109       H  0.34390455  0.02212727  0.55565833     0.14800
C1110       C  0.30351598  0.98278874  0.58048559    -0.24200
H1111       H  0.34671389  0.08679227  0.64709483     0.05000
H1112       H  0.35382374  0.09857424  0.60835436     0.08200
H1113       H  0.37452534  0.09058336  0.62882770     0.08200
H1114       H  0.28501153  0.97730050  0.57044016     0.08200
H1115       H  0.30267546  0.47089301  0.60085036     0.08200
H1116       H  0.31472583  0.98026924  0.56214281     0.05000
C1117       C  0.17002117  0.47932256  0.74090228    -0.20800
C1118       C  0.18344101  0.46782006  0.75072364    -0.07400
C1119       C  0.17680065  0.45421202  0.77875566     0.13500
C1120       C  0.15528341  0.45012018  0.79446618    -0.20900
C1121       C  0.13999828  0.45910787  0.78284644    -0.07400
C1122       C  0.14827954  0.47514588  0.75654548     0.13500
C1123       C  0.13439249  0.48767279  0.74432871    -0.24200
H1124       H  0.17556260  0.49017826  0.71966272     0.14800
H1125       H  0.14976399  0.43863453  0.81516332     0.14800
C1126       C  0.19233726  0.44394232  0.79228632    -0.24200
H1127       H  0.14491046  0.50111138  0.72546893     0.05000
H1128       H  0.13146905  0.49813444  0.76321399     0.08200
H1129       H  0.11620787  0.47367717  0.73456459     0.08200
H1130       H  0.21222695  0.96152037  0.79513412     0.08200
H1131       H  0.19208461  0.42938954  0.77711761     0.08200
H1132       H  0.18530322  0.43530979  0.81539253     0.05000
C1133       C  0.30506977  0.47628712  0.74488883    -0.20800
C1134       C  0.27956845  0.46117428  0.75131566    -0.07400
C1135       C  0.27198055  0.44372042  0.77591794     0.13500
C1136       C  0.28989675  0.44050168  0.79175397    -0.20900
C1137       C  0.31519632  0.45397512  0.78349880    -0.07400
C1138       C  0.32304274  0.47285385  0.76058336     0.13500
C1139       C  0.35019934  0.48951411  0.75262789    -0.24200
H1140       H  0.31086410  0.48990614  0.72633415     0.14800
H1141       H  0.28387168  0.42640646  0.80975445     0.14800
C1142       C  0.24507847  0.42851526  0.78589869    -0.24200
H1143       H  0.35291422  0.50444429  0.73609978     0.05000
H1144       H  0.35794930  0.47863309  0.74156493     0.08200
H1145       H  0.36081551  0.49852902  0.77395561     0.08200
H1146       H  0.23372261  0.41538275  0.76746300     0.08200
H1147       H  0.23873875  0.94341349  0.79225002     0.08200
H1148       H  0.24362415  0.91936456  0.80799166     0.05000
C1149       C  0.12216657  0.35589565  0.60975402    -0.20800
C1150       C  0.10407324  0.35156424  0.63224920    -0.07400
C1151       C  0.10719897  0.37098140  0.65205855     0.13500
C1152       C  0.13003733  0.39320278  0.65190655    -0.20900
C1153       C  0.14973841  0.39603681  0.63279742    -0.07400
C1154       C  0.14533849  0.37781961  0.61016062     0.13500
C1155       C  0.16571209  0.38003183  0.58879240    -0.24200
H1156       H  0.11932124  0.34095138  0.59429555     0.14800
H1157       H  0.13328932  0.40749524  0.66870519     0.14800
C1158       C  0.08692358  0.36775569  0.67435892    -0.24200
H1159       H  0.15910045  0.36366463  0.57331756     0.05000
H1160       H  0.18147231  0.38133159  0.60253777     0.08200
H1161       H  0.17236632  0.39685138  0.57399434     0.08200
H1162       H  0.08302169  0.35279255  0.69136472     0.08200
H1163       H  0.06963615  0.36286768  0.66133578     0.08200
H1164       H  0.09225199  0.38507795  0.68751061     0.05000
C1165       C  0.34476505  0.28447942  0.61109721    -0.20800
C1166       C  0.34991582  0.29836766  0.58375836    -0.07400
C1167       C  0.33563239  0.30957059  0.57591785     0.13500
C1168       C  0.31528981  0.30518278  0.59476110    -0.20900
C1169       C  0.30877914  0.28964258  0.62107816    -0.07400
C1170       C  0.32447425  0.27999414  0.63003621     0.13500
C1171       C  0.31942740  0.26375621  0.65829938    -0.24200
H1172       H  0.35607075  0.27610928  0.61684869     0.14800
H1173       H  0.30370099  0.31299019  0.58801705     0.14800
C1174       C  0.34083255  0.32476674  0.54668669    -0.24200
H1175       H  0.33354209  0.25774910  0.66107615     0.05000
H1176       H  0.30092597  0.24669182  0.65636153     0.08200
H1177       H  0.32008108  0.27423628  0.67944296     0.08200
H1178       H  0.33931399  0.31324068  0.52624112     0.08200
H1179       H  0.35991189  0.34111717  0.54751429     0.08200
H1180       H  0.32746534  0.33169152  0.54367052     0.05000
C1181       C  0.21587202  0.15726245  0.60864879    -0.20800
C1182       C  0.20405176  0.15349888  0.58000047    -0.07400
C1183       C  0.19593294  0.16998245  0.57006213     0.13500
C1184       C  0.20115418  0.19075046  0.58833506    -0.20900
C1185       C  0.21446960  0.19562263  0.61635513    -0.07400
C1186       C  0.22104152  0.17787235  0.62715152     0.13500
C1187       C  0.23413785  0.18046505  0.65749733    -0.24200
H1188       H  0.22198929  0.14438887  0.61601031     0.14800
H1189       H  0.19554323  0.20373544  0.57993229     0.14800
C1190       C  0.18300792  0.16647385  0.53941498    -0.24200
H1191       H  0.23698877  0.16438159  0.66212178     0.05000
H1192       H  0.22274530  0.18136659  0.67688153     0.08200
H1193       H  0.25283970  0.19739165  0.65709830     0.08200
H1194       H  0.16531967  0.14841454  0.53939684     0.08200
H1195       H  0.19517027  0.16664690  0.52030447     0.08200
H1196       H  0.17846297  0.18144064  0.53480348     0.05000
C1197       C  0.29370269  0.34566781  0.79716258    -0.20800
C1198       C  0.31800964  0.36016754  0.78512354    -0.07400
C1199       C  0.32521781  0.35095866  0.75917528     0.13500
C1200       C  0.30748908  0.32882355  0.74492836    -0.20900
C1201       C  0.28271951  0.31602156  0.75523210    -0.07400
C1202       C  0.27595080  0.32394143  0.78237473     0.13500
C1203       C  0.24995750  0.30959254  0.79571301    -0.24200
H1204       H  0.28799894  0.35199974  0.81737360     0.14800
H1205       H  0.31252824  0.32249188  0.72412590     0.14800
C1206       C  0.35116499  0.36438836  0.74552572    -0.24200
H1207       H  0.24819022  0.31779315  0.81778357     0.05000
H1208       H  0.24536608  0.29014501  0.80049574     0.08200
H1209       H  0.23617438  0.30959176  0.77933785     0.08200
H1210       H  0.36508380  0.36772114  0.76376553     0.08200
H1211       H  0.35490865  0.38229644  0.73498175     0.08200
H1212       H  0.35362089  0.35341216  0.72690537     0.05000
C1213       C  0.15589409  0.20056685  0.79560970    -0.20800
C1214       C  0.13754528  0.17943724  0.77999592    -0.07400
C1215       C  0.14331390  0.17423316  0.74987765     0.13500
C1216       C  0.16582021  0.19145825  0.73548982    -0.20900
C1217       C  0.18260417  0.21364767  0.75009805    -0.07400
C1218       C  0.17821382  0.21772965  0.78097438     0.13500
C1219       C  0.19701617  0.24032409  0.79838530    -0.24200
H1220       H  0.15240677  0.20440467  0.81901981     0.14800
H1221       H  0.16959118  0.18839157  0.71181957     0.14800
C1222       C  0.12591058  0.15117526  0.73201766    -0.24200
H1223       H  0.19111533  0.24021357  0.82274330     0.05000
H1224       H  0.19943594  0.25750815  0.78711251     0.08200
H1225       H  0.21519515  0.24072668  0.79868828     0.08200
H1226       H  0.10851166  0.15139010  0.72633661     0.08200
H1227       H  0.12159287  0.13431660  0.74579212     0.08200
H1228       H  0.13428590  0.14993814  0.70974130     0.05000
C1229       C  0.23482728  0.37820591  0.61336957    -0.20800
C1230       C  0.24557548  0.39523518  0.63762513    -0.07400
C1231       C  0.25958900  0.39112720  0.66033669     0.13500
C1232       C  0.25952127  0.36845996  0.66077013    -0.20900
C1233       C  0.24604822  0.35000888  0.63882500    -0.07400
C1234       C  0.23495458  0.35552584  0.61367052     0.13500
C1235       C  0.22144059  0.33674134  0.58865622    -0.24200
H1236       H  0.22435264  0.38157676  0.59579419     0.14800
H1237       H  0.26851427  0.36439014  0.67962468     0.14800
C1238       C  0.27374252  0.41018647  0.68495003    -0.24200
H1239       H  0.21322028  0.34379590  0.57126468     0.05000
H1240       H  0.20614302  0.31947769  0.59901762     0.08200
H1241       H  0.23464592  0.33236041  0.57645759     0.08200
H1242       H  0.26069623  0.41257877  0.70030864     0.08200
H1243       H  0.28682739  0.42828485  0.67387542     0.08200
H1244       H  0.28478644  0.40452482  0.69971385     0.05000
C1245       C  0.14988253  0.27153712  0.61515915    -0.20800
C1246       C  0.15244710  0.25600572  0.63675763    -0.07400
C1247       C  0.13151204  0.23888775  0.65424412     0.13500
C1248       C  0.10944803  0.24002518  0.65263530    -0.20900
C1249       C  0.10805913  0.25801850  0.63426824    -0.07400
C1250       C  0.12801870  0.27313506  0.61412159     0.13500
C1251       C  0.12738178  0.29275945  0.59404709    -0.24200
H1252       H  0.16589095  0.28437177  0.60148696     0.14800
H1253       H  0.09390618  0.22821826  0.66769295     0.14800
C1254       C  0.13264578  0.22000422  0.67534327    -0.24200
H1255       H  0.14488678  0.30344193  0.58046591     0.05000
H1256       H  0.12497688  0.30609566  0.60879533     0.08200
H1257       H  0.11167130  0.28388564  0.57752244     0.08200
H1258       H  0.14593464  0.22932793  0.69450081     0.08200
H1259       H  0.13861553  0.20857113  0.66187844     0.08200
H1260       H  0.11417751  0.20726551  0.68591906     0.05000
Fe1261     Fe  0.21543724  0.78355424  0.19774393     1.65800
Fe1262     Fe  0.24835510  0.75307990  0.18956406     1.73200
Fe1263     Fe  0.23022157  0.77289659  0.12504335     1.54400
O1264       O  0.19295913  0.76343688  0.12428068    -0.82200
O1265       O  0.27963370  0.77224040  0.16216863    -0.80500
O1266       O  0.18317598  0.76765894  0.17275242    -0.84700
O1267       O  0.22956045  0.81619229  0.17286963    -0.79500
O1268       O  0.21917675  0.73586697  0.11808407    -0.81300
O1269       O  0.26660199  0.78050392  0.22281943    -0.84100
C1270       C  0.23872211  0.82404319  0.14614263     0.96700
C1271       C  0.17741869  0.76189130  0.14469928     1.04100
O1272       O  0.23137136  0.76985226  0.17071523    -1.13000
O1273       O  0.21868961  0.73116116  0.21887280    -0.75500
O1274       O  0.19909054  0.75276587  0.22609607    -0.79000
O1275       O  0.24115823  0.81043105  0.12608821    -0.79700
C1276       C  0.20155347  0.73394638  0.23117063     0.95600
O1277       O  0.24576512  0.80120774  0.22583477    -0.77600
O1278       O  0.23299089  0.72402871  0.15845124    -0.82800
C1279       C  0.28383269  0.78144114  0.13510499     0.98200
C1280       C  0.22245057  0.71971102  0.13226093     1.04100
O1281       O  0.26717794  0.78269586  0.11931744    -0.78500
C1282       C  0.26367293  0.79798635  0.23358277     1.02400
Fe1283     Fe  0.21324964  0.93039130  0.19472407     1.65800
Fe1284     Fe  0.24755170  0.49315552  0.18620936     1.73200
Fe1285     Fe  0.22820114  0.95561856  0.12247479     1.54400
O1286       O  0.24167192  0.93081229  0.12421524    -0.82200
O1287       O  0.23282059  0.50751376  0.15464374    -0.80500
O1288       O  0.22500673  0.91053674  0.16840309    -0.84700
O1289       O  0.18033278  0.91641971  0.17144103    -0.79500
O1290       O  0.26432202  0.98398195  0.11565311    -0.81300
O1291       O  0.21723385  0.98643467  0.21501852    -0.84100
C1292       C  0.17538548  0.91443315  0.14284245     0.96700
C1293       C  0.23715933  0.91355898  0.14354042     1.04100
O1294       O  0.22955960  0.95981097  0.16789981    -1.13000
O1295       O  0.26482009  0.48286450  0.21987545    -0.75500
O1296       O  0.24437054  0.94153112  0.22075217    -0.79000
O1297       O  0.19167287  0.92659462  0.12225020    -0.79700
C1298       C  0.26150233  0.96234731  0.23009493     0.95600
O1299       O  0.19943708  0.94592869  0.22500693    -0.77600
O1300       O  0.27892959  0.50438577  0.15924013    -0.82800
C1301       C  0.22075641  0.50077383  0.12937514     0.98200
C1302       C  0.28239710  0.50022341  0.13142587     1.04100
O1303       O  0.21486690  0.98009496  0.11641407    -0.78500
C1304       C  0.20143131  0.96702406  0.22928864     1.02400
Fe1305     Fe  0.07106824  0.78609502  0.19358907     1.65800
Fe1306     Fe  0.50829375  0.75485915  0.18565642     1.73200
Fe1307     Fe  0.04575396  0.77338895  0.12108235     1.54400
O1308       O  0.07097699  0.81109267  0.12104982    -0.82200
O1309       O  0.49511755  0.72507419  0.15574984    -0.80500
O1310       O  0.08868884  0.81789968  0.16751288    -0.84700
O1311       O  0.08783426  0.76978175  0.16975932    -0.79500
O1312       O  0.01817524  0.78242450  0.11446333    -0.81300
O1313       O  0.01616518  0.73436680  0.21710189    -0.84100
C1314       C  0.08839572  0.76397864  0.14180888     0.96700
C1315       C  0.08647474  0.82527261  0.14097216     1.04100
O1316       O  0.04155835  0.77136602  0.16682759    -1.13000
O1317       O  0.01655701  0.78293546  0.21772072    -0.75500
O1318       O  0.05797666  0.80415647  0.22059390    -0.79000
O1319       O  0.07437038  0.76493603  0.12110147    -0.79700
C1320       C  0.03669367  0.80080196  0.22788323     0.95600
O1321       O  0.05719453  0.75646751  0.22340352    -0.77600
O1322       O  0.49565384  0.77304294  0.15731090    -0.82800
C1323       C  0.50145666  0.72024940  0.12974342     0.98200
C1324       C  0.50073701  0.78186733  0.13003302     1.04100
O1325       O  0.02062336  0.73603909  0.11542274    -0.78500
C1326       C  0.03614720  0.73805918  0.23002369     1.02400
Fe1327     Fe  0.23972986  0.62097538  0.02442283     1.65800
Fe1328     Fe  0.17656877  0.58843417  0.01790864     1.73200
Fe1329     Fe  0.21387255  0.60775162  0.45230954     1.54400
O1330       O  0.24172728  0.64485747  0.45176965    -0.82200
O1331       O  0.16451437  0.55744962  0.48970546    -0.80500
O1332       O  0.25570078  0.65334815  0.99966761    -0.84700
O1333       O  0.25705698  0.60627605  0.99873735    -0.79500
O1334       O  0.18829001  0.61965945  0.44686857    -0.81300
O1335       O  0.18618744  0.56992899  0.05058846    -0.84100
C1336       C  0.25474090  0.59614519  0.47244456     0.96700
C1337       C  0.25547397  0.65983278  0.47246898     1.04100
O1338       O  0.20990463  0.60563697  0.99819701    -1.13000
O1339       O  0.18473144  0.61789290  0.04753633    -0.75500
O1340       O  0.22594085  0.63729474  0.05346782    -0.79000
O1341       O  0.23950894  0.59535287  0.45226315    -0.79700
C1342       C  0.20477705  0.63488435  0.05928170     0.95600
O1343       O  0.22753116  0.59065126  0.05267201    -0.77600
O1344       O  0.16249104  0.60414759  0.48717379    -0.82800
C1345       C  0.16936384  0.55405862  0.46208282     0.98200
C1346       C  0.16871744  0.61560045  0.46135261     1.04100
O1347       O  0.18654055  0.57131727  0.44620847    -0.78500
C1348       C  0.20665192  0.57282291  0.06098425     1.02400
Fe1349     Fe  0.38079395  0.61937497  0.02556723     1.65800
Fe1350     Fe  0.41377924  0.58888720  0.02037179     1.73200
Fe1351     Fe  0.39538854  0.60659962  0.45410623     1.54400
O1352       O  0.35755405  0.59429642  0.45267643    -0.82200
O1353       O  0.44395190  0.60640013  0.49251640    -0.80500
O1354       O  0.34837850  0.60172515  0.00090095    -0.84700
O1355       O  0.39430221  0.65085960  0.99897675    -0.79500
O1356       O  0.38672225  0.57012672  0.44886652    -0.81300
O1357       O  0.43189802  0.61733270  0.05230399    -0.84100
C1358       C  0.40349850  0.65825590  0.47231493     0.96700
C1359       C  0.34229886  0.59434570  0.47235509     1.04100
O1360       O  0.39662377  0.60484914  0.99994620    -1.13000
O1361       O  0.38448657  0.56807111  0.05046860    -0.75500
O1362       O  0.36518841  0.59006714  0.05606215    -0.79000
O1363       O  0.40422016  0.64354415  0.45253070    -0.79700
C1364       C  0.36775540  0.57154920  0.06265730     0.95600
O1365       O  0.41150693  0.63853343  0.05272266    -0.77600
O1366       O  0.39689396  0.55815728  0.49230027    -0.82800
C1367       C  0.44893601  0.61698909  0.46617527     0.98200
C1368       C  0.38823777  0.55379738  0.46504372     1.04100
O1369       O  0.43283815  0.61877721  0.44998549    -0.78500
C1370       C  0.42921100  0.63533573  0.06155625     1.02400
Fe1371     Fe  0.38254303  0.76406260  0.02607894     1.65800
Fe1372     Fe  0.41416650  0.82701848  0.01931081     1.73200
Fe1373     Fe  0.39581703  0.79066556  0.45470908     1.54400
O1374       O  0.40281534  0.76123486  0.45458836    -0.82200
O1375       O  0.39521580  0.83986461  0.49265683    -0.80500
O1376       O  0.40132770  0.74946607  0.00317613    -0.84700
O1377       O  0.35187776  0.74552079  0.99802948    -0.79500
O1378       O  0.43346667  0.81399705  0.44964510    -0.81300
O1379       O  0.38655166  0.81754663  0.05255480    -0.84100
C1380       C  0.34450728  0.74894778  0.47299483     0.96700
C1381       C  0.40638612  0.74889392  0.47544401     1.04100
O1382       O  0.39741444  0.79392197  0.99987907    -1.13000
O1383       O  0.43524476  0.81825898  0.04825569    -0.75500
O1384       O  0.41091142  0.77792846  0.05778815    -0.79000
O1385       O  0.35786286  0.76678502  0.45483315    -0.79700
C1386       C  0.43052993  0.79844392  0.06244266     0.95600
O1387       O  0.36275044  0.77616458  0.05170647    -0.77600
O1388       O  0.44364455  0.84088317  0.48831056    -0.82800
C1389       C  0.38782333  0.83595477  0.46482592     0.98200
C1390       C  0.44909540  0.83348366  0.46356371     1.04100
O1391       O  0.38860051  0.81949208  0.44821817    -0.78500
C1392       C  0.36751165  0.79743888  0.06112533     1.02400
Fe1393     Fe  0.40461538  0.95339310  0.35920697     1.65800
Fe1394     Fe  0.34138371  0.92126747  0.35352386     1.73200
Fe1395     Fe  0.37801060  0.93929987  0.28747491     1.54400
O1396       O  0.40332256  0.97727694  0.28615739    -0.82200
O1397       O  0.32805217  0.89072012  0.32450229    -0.80500
O1398       O  0.42100310  0.98484860  0.33260008    -0.84700
O1399       O  0.42099707  0.93701643  0.33515264    -0.79500
O1400       O  0.35026166  0.94819691  0.28146368    -0.81300
O1401       O  0.35078425  0.90168688  0.38460926    -0.84100
C1402       C  0.42045056  0.92956132  0.30779976     0.96700
C1403       C  0.41858796  0.99197283  0.30598563     1.04100
O1404       O  0.37458964  0.93794874  0.33335045    -1.13000
O1405       O  0.35040144  0.95010517  0.38469958    -0.75500
O1406       O  0.39186062  0.97140053  0.38672384    -0.79000
O1407       O  0.40620556  0.93016537  0.28713592    -0.79700
C1408       C  0.37070542  0.96809268  0.39452263     0.95600
O1409       O  0.39194092  0.92414773  0.38928428    -0.77600
O1410       O  0.32782113  0.93841106  0.32492815    -0.82800
C1411       C  0.33418971  0.88578437  0.29840538     0.98200
C1412       C  0.33259840  0.94718952  0.29760426     1.04100
O1413       O  0.35281137  0.90185326  0.28304361    -0.78500
C1414       C  0.37117984  0.90561798  0.39647556     1.02400
Fe1415     Fe  0.04853610  0.95148946  0.36261057     1.65800
Fe1416     Fe  0.08140925  0.92109148  0.35378946     1.73200
Fe1417     Fe  0.06036958  0.93836951  0.28964912     1.54400
O1418       O  0.02275878  0.92674728  0.29096843    -0.82200
O1419       O  0.11109101  0.93916696  0.32375222    -0.80500
O1420       O  0.01579953  0.93583442  0.33851575    -0.84700
O1421       O  0.06292861  0.98367773  0.33734339    -0.79500
O1422       O  0.05089745  0.90173424  0.28381663    -0.81300
O1423       O  0.10128526  0.94984851  0.38467346    -0.84100
C1424       C  0.06983978  0.99018477  0.30962376     0.96700
C1425       C  0.00841551  0.92717570  0.31169485     1.04100
O1426       O  0.06344696  0.93696553  0.33530214    -1.13000
O1427       O  0.05353604  0.90071366  0.38588220    -0.75500
O1428       O  0.03245519  0.92106813  0.39097702    -0.79000
O1429       O  0.06954409  0.97538787  0.28916381    -0.79700
C1430       C  0.03607876  0.90322645  0.39769244     0.95600
O1431       O  0.07921584  0.96907816  0.39035157    -0.77600
O1432       O  0.06436336  0.89062816  0.32513057    -0.82800
C1433       C  0.11463133  0.94917070  0.29713913     0.98200
C1434       C  0.05384637  0.88579735  0.29894307     1.04100
O1435       O  0.09744172  0.95006550  0.28234612    -0.78500
C1436       C  0.09794810  0.96674516  0.39645577     1.02400
Fe1437     Fe  0.04559610  0.59562981  0.36042067     1.65800
Fe1438     Fe  0.07904417  0.65877964  0.35289574     1.73200
Fe1439     Fe  0.05790094  0.62165483  0.28800521     1.54400
O1440       O  0.06679201  0.59343936  0.28675881    -0.82200
O1441       O  0.06186458  0.67303815  0.32515696    -0.80500
O1442       O  0.05989578  0.57796689  0.33471643    -0.84700
O1443       O  0.01288537  0.57947062  0.33604720    -0.79500
O1444       O  0.09530318  0.64665058  0.28102888    -0.81300
O1445       O  0.05143170  0.65109486  0.38561137    -0.84100
C1446       C  0.00549724  0.58127658  0.30935480     0.96700
C1447       C  0.06682022  0.57855303  0.30697498     1.04100
O1448       O  0.06084481  0.62538373  0.33373572    -1.13000
O1449       O  0.09876374  0.64885830  0.38302804    -0.75500
O1450       O  0.07620700  0.60778263  0.38835806    -0.79000
O1451       O  0.02001709  0.59614523  0.28883671    -0.79700
C1452       C  0.09512450  0.62846811  0.39468458     0.95600
O1453       O  0.02965252  0.60980276  0.38937157    -0.77600
O1454       O  0.10883011  0.67072558  0.32257939    -0.82800
C1455       C  0.05108825  0.66754586  0.29904637     0.98200
C1456       C  0.11253985  0.66448875  0.29590974     1.04100
O1457       O  0.04860475  0.64921137  0.28326530    -0.78500
C1458       C  0.03382274  0.63120492  0.39710814     1.02400
C1459       C  0.09172452  0.55860017  0.31809843    -0.20800
C1460       C  0.07443974  0.56026262  0.29871845    -0.07400
C1461       C  0.06069479  0.54108186  0.27734715     0.13500
C1462       C  0.06258884  0.51939619  0.27831759    -0.20900
C1463       C  0.07721017  0.51640620  0.30085511    -0.07400
C1464       C  0.09321425  0.53678517  0.31956871     0.13500
C1465       C  0.11108481  0.53522695  0.34199700    -0.24200
H1466       H  0.10251236  0.57361126  0.33409221     0.14800
H1467       H  0.04912197  0.00337028  0.26506314     0.14800
C1468       C  0.04221334  0.54235079  0.25581874    -0.24200
H1469       H  0.12297433  0.55332134  0.35360632     0.05000
H1470       H  0.12350755  0.53002132  0.32935952     0.08200
H1471       H  0.10084036  0.52123492  0.36036524     0.08200
H1472       H  0.05200795  0.55876270  0.24029029     0.08200
H1473       H  0.02776656  0.54395087  0.26940626     0.08200
H1474       H  0.03265205  0.52548033  0.24115178     0.05000
C1475       C  0.43842766  0.53541330  0.32383973    -0.20800
C1476       C  0.43461400  0.51868072  0.29981187    -0.07400
C1477       C  0.45094279  0.52695749  0.27404445     0.13500
C1478       C  0.47350026  0.54962698  0.27616882    -0.20900
C1479       C  0.47935151  0.56405918  0.30316305    -0.07400
C1480       C  0.46063016  0.55812842  0.32581103     0.13500
C1481       C  0.46434591  0.57513667  0.35272636    -0.24200
H1482       H  0.42508466  0.52958541  0.34278413     0.14800
H1483       H  0.48745683  0.55483004  0.25808432     0.14800
C1484       C  0.44541481  0.51139635  0.24535566    -0.24200
H1485       H  0.44707267  0.56825820  0.36684867     0.05000
H1486       H  0.46948173  0.59396377  0.34392775     0.08200
H1487       H  0.47916330  0.57647011  0.36830277     0.08200
H1488       H  0.42815044  0.00857838  0.23447887     0.08200
H1489       H  0.44441654  0.99364034  0.25034233     0.08200
H1490       H  0.46035957  0.52059532  0.22762677     0.05000
C1491       C  0.44106306  0.90594611  0.32300334    -0.20800
C1492       C  0.43819803  0.92083938  0.30064294    -0.07400
C1493       C  0.45610160  0.93176254  0.27671771     0.13500
C1494       C  0.47820763  0.93063784  0.27844335    -0.20900
C1495       C  0.48268663  0.91922138  0.30379247    -0.07400
C1496       C  0.46320190  0.90502553  0.32492253     0.13500
C1497       C  0.46603739  0.88967409  0.35011527    -0.24200
H1498       H  0.42685910  0.89685656  0.34074154     0.14800
H1499       H  0.49309053  0.94107782  0.26192175     0.14800
C1500       C  0.45324894  0.94683370  0.25136734    -0.24200
H1501       H  0.44844881  0.87877736  0.36346190     0.05000
H1502       H  0.98030199  0.90178699  0.36707961     0.08200
H1503       H  0.47106697  0.87636902  0.33962838     0.08200
H1504       H  0.45236548  0.96271464  0.26174828     0.08200
H1505       H  0.43592120  0.93503307  0.23823057     0.08200
H1506       H  0.46918055  0.95437746  0.23482907     0.05000
C1507       C  0.39121250  0.87731399  0.46003667    -0.20800
C1508       C  0.37951015  0.85237385  0.45058658    -0.07400
C1509       C  0.36160781  0.84438949  0.42658899     0.13500
C1510       C  0.35773367  0.86204843  0.41084644    -0.20900
C1511       C  0.37146397  0.88737680  0.41825859    -0.07400
C1512       C  0.38753994  0.89495767  0.44412425     0.13500
C1513       C  0.40094479  0.92158805  0.45511039    -0.24200
H1514       H  0.40441814  0.88338260  0.47894300     0.14800
H1515       H  0.34504793  0.85624993  0.39139673     0.14800
C1516       C  0.34650044  0.81742459  0.41737284    -0.24200
H1517       H  0.41090185  0.92357841  0.47720807     0.05000
H1518       H  0.38729947  0.92805328  0.45908449     0.08200
H1519       H  0.41508271  0.93382910  0.43784313     0.08200
H1520       H  0.33699384  0.80582584  0.43806448     0.08200
H1521       H  0.35865866  0.81104013  0.40657227     0.08200
H1522       H  0.33195660  0.81446591  0.40019053     0.05000
C1523       C  0.98858234  0.87322171  0.46132151    -0.20800
C1524       C  0.47427185  0.84926086  0.44972053    -0.07400
C1525       C  0.48386453  0.84162285  0.42459007     0.13500
C1526       C  0.50575827  0.85935237  0.40950545    -0.20900
C1527       C  0.01805982  0.88415541  0.41898656    -0.07400
C1528       C  0.01020831  0.89089586  0.44620311     0.13500
C1529       C  0.02460914  0.91671237  0.45952416    -0.24200
H1530       H  0.98218417  0.87900057  0.48139850     0.14800
H1531       H  0.51228135  0.85410749  0.38903335     0.14800
C1532       C  0.47125139  0.81518484  0.41300605    -0.24200
H1533       H  0.01660577  0.91824052  0.48194757     0.05000
H1534       H  0.02445365  0.93068030  0.44355547     0.08200
H1535       H  0.04406909  0.92114831  0.46373774     0.08200
H1536       H  0.45309104  0.81026076  0.40230969     0.08200
H1537       H  0.46845804  0.80226338  0.43245725     0.08200
H1538       H  0.48262214  0.81251863  0.39502199     0.05000
C1539       C  0.50594925  0.64720650  0.41335867    -0.20800
C1540       C  0.01636089  0.63238578  0.41938477    -0.07400
C1541       C  0.00822734  0.61692172  0.44591955     0.13500
C1542       C  0.98713959  0.61366286  0.46196177    -0.20900
C1543       C  0.47400436  0.62556454  0.45278500    -0.07400
C1544       C  0.48470618  0.64406756  0.42931895     0.13500
C1545       C  0.47389721  0.66039822  0.42068641    -0.24200
H1546       H  0.51332839  0.66020068  0.39410904     0.14800
H1547       H  0.98021440  0.60070483  0.48127616     0.14800
C1548       C  0.02181299  0.60397172  0.45764958    -0.24200
H1549       H  0.48611833  0.67525216  0.40407914     0.05000
H1550       H  0.47183687  0.66953546  0.44172286     0.08200
H1551       H  0.45554241  0.64927879  0.40938907     0.08200
H1552       H  0.04146282  0.61813794  0.46212093     0.08200
H1553       H  0.02099918  0.59019125  0.44065878     0.08200
H1554       H  0.01366285  0.59382803  0.47969453     0.05000
C1555       C  0.38438373  0.99203460  0.44285046    -0.20800
C1556       C  0.37052367  0.98668939  0.41554888    -0.07400
C1557       C  0.36080035  0.00201612  0.40636086     0.13500
C1558       C  0.36568970  0.52285592  0.42356500    -0.20900
C1559       C  0.38021015  0.52906314  0.45067042    -0.07400
C1560       C  0.38837661  0.51255588  0.46138724     0.13500
C1561       C  0.40377073  0.51738294  0.49025383    -0.24200
H1562       H  0.39198427  0.98022219  0.44945309     0.14800
H1563       H  0.35907821  0.53507759  0.41524830     0.14800
C1564       C  0.34654630  0.99738081  0.37655799    -0.24200
H1565       H  0.40869632  0.50262789  0.49444819     0.05000
H1566       H  0.39307612  0.51777241  0.51076479     0.08200
H1567       H  0.42148927  0.53531352  0.48799509     0.08200
H1568       H  0.32941307  0.97886671  0.37747808     0.08200
H1569       H  0.35833425  0.99794906  0.35671877     0.08200
H1570       H  0.34088854  0.01159927  0.37236709     0.05000
C1571       C  0.42881342  0.70294710  0.48289865    -0.20800
C1572       C  0.41130780  0.68411107  0.46385104    -0.07400
C1573       C  0.39735646  0.68964961  0.44271407     0.13500
C1574       C  0.39899027  0.71303096  0.44382859    -0.20900
C1575       C  0.41346348  0.73034111  0.46645754    -0.07400
C1576       C  0.43006393  0.72614172  0.48451018     0.13500
C1577       C  0.44844264  0.74567831  0.50616004    -0.24200
H1578       H  0.43990304  0.69872818  0.49857037     0.14800
H1579       H  0.38655710  0.71652170  0.42971707     0.14800
C1580       C  0.37833619  0.66999492  0.42200371    -0.24200
H1581       H  0.46093496  0.73969978  0.51694279     0.05000
H1582       H  0.43811325  0.74897746  0.02467122     0.08200
H1583       H  0.46023397  0.76315357  0.49305422     0.08200
H1584       H  0.36307603  0.65458763  0.93706291     0.08200
H1585       H  0.38739325  0.66221865  0.40694385     0.08200
H1586       H  0.36903380  0.67746362  0.40689743     0.05000
C1587       C  0.12635388  0.61039158  0.45711347    -0.20800
C1588       C  0.15127805  0.62273612  0.44679690    -0.07400
C1589       C  0.15801952  0.63985031  0.42173280     0.13500
C1590       C  0.13938854  0.64248258  0.40643941    -0.20900
C1591       C  0.11424396  0.62836677  0.41517178    -0.07400
C1592       C  0.10781789  0.61288996  0.44167247     0.13500
C1593       C  0.08158465  0.59933329  0.45432591    -0.24200
H1594       H  0.12096960  0.59776698  0.47672455     0.14800
H1595       H  0.14433299  0.65470366  0.38644689     0.14800
C1596       C  0.18458792  0.65536714  0.41063375    -0.24200
H1597       H  0.08032324  0.58939177  0.47630128     0.05000
H1598       H  0.06875203  0.58527069  0.43764147     0.08200
H1599       H  0.07544401  0.61302432  0.45922318     0.08200
H1600       H  0.19119367  0.64332390  0.40009158     0.08200
H1601       H  0.19674207  0.66591540  0.43030818     0.08200
H1602       H  0.18642886  0.66905637  0.39265225     0.05000
C1603       C  0.13010396  0.51321074  0.46096153    -0.20800
C1604       C  0.15335669  0.52940360  0.44722666    -0.07400
C1605       C  0.15967189  0.52226178  0.41873385     0.13500
C1606       C  0.14193752  0.50042536  0.40399552    -0.20900
C1607       C  0.11719876  0.98567381  0.41667099    -0.07400
C1608       C  0.11095607  0.99287914  0.44480969     0.13500
C1609       C  0.08555208  0.97772662  0.45942940    -0.24200
H1610       H  0.12349948  0.02021659  0.48075047     0.14800
H1611       H  0.14619229  0.49560310  0.38151512     0.14800
C1612       C  0.18467658  0.53749246  0.40306018    -0.24200
H1613       H  0.08425515  0.98542990  0.48213312     0.05000
H1614       H  0.08190298  0.95850049  0.46340680     0.08200
H1615       H  0.07091953  0.97737202  0.44430627     0.08200
H1616       H  0.19984407  0.54080254  0.41939142     0.08200
H1617       H  0.18686722  0.55546231  0.39477899     0.08200
H1618       H  0.18669983  0.52787533  0.38248198     0.05000
C1619       C  0.29047795  0.69093881  0.44092383    -0.20800
C1620       C  0.27309897  0.68599176  0.46472147    -0.07400
C1621       C  0.27708390  0.70506001  0.48579747     0.13500
C1622       C  0.30001933  0.72710883  0.48557439    -0.20900
C1623       C  0.31883967  0.73064620  0.46454737    -0.07400
C1624       C  0.31356971  0.71305346  0.44072512     0.13500
C1625       C  0.33251937  0.71570465  0.41668149    -0.24200
H1626       H  0.28729886  0.67639841  0.42455886     0.14800
H1627       H  0.30392213  0.74082650  0.50347184     0.14800
C1628       C  0.25805489  0.70205645  0.50995028    -0.24200
H1629       H  0.32492488  0.71506506  0.39322669     0.08600
H1630       H  0.33643744  0.70009468  0.41904597     0.08200
H1631       H  0.35042838  0.73331501  0.41850978     0.08200
H1632       H  0.26504574  0.70289330  0.03206969     0.08200
H1633       H  0.24012850  0.68448420  0.50727806     0.08200
H1634       H  0.25402264  0.71760204  0.50785026     0.05000
C1635       C  0.28666218  0.59439522  0.43919335    -0.20800
C1636       C  0.27138883  0.58608280  0.46566411    -0.07400
C1637       C  0.27556279  0.57239827  0.98937577     0.13500
C1638       C  0.29803828  0.57215140  0.98882464    -0.20900
C1639       C  0.31592889  0.58471141  0.46426591    -0.07400
C1640       C  0.30884725  0.59327947  0.43792122     0.13500
C1641       C  0.32496383  0.60217318  0.40930416    -0.24200
H1642       H  0.28243345  0.60366675  0.42083210     0.14800
H1643       H  0.30284675  0.56429467  0.00831490     0.14800
C1644       C  0.25732794  0.55934318  0.01552259    -0.24200
H1645       H  0.31674900  0.60868548  0.39122880     0.05000
H1646       H  0.32689909  0.58662418  0.39955946     0.08200
H1647       H  0.34370660  0.61766447  0.41479569     0.08200
H1648       H  0.23862507  0.54649086  0.00592996     0.08200
H1649       H  0.25610587  0.57295001  0.03097666     0.08200
H1650       H  0.26305684  0.54819049  0.03000014     0.05000
C1651       C  0.47419783  0.81046094  0.07395027    -0.20800
C1652       C  0.44924012  0.79851847  0.08366241    -0.07400
C1653       C  0.44238128  0.78463176  0.11154007     0.13500
C1654       C  0.46013429  0.78094528  0.12718165    -0.20900
C1655       C  0.48452612  0.79053129  0.11557698    -0.07400
C1656       C  0.49198193  0.80665784  0.08942196     0.13500
C1657       C  0.51843298  0.81985977  0.07735510    -0.24200
H1658       H  0.47951455  0.82163429  0.05290370     0.14800
H1659       H  0.45441333  0.76930705  0.14781833     0.14800
C1660       C  0.41643412  0.77369252  0.12496292    -0.24200
H1661       H  0.52111247  0.83340297  0.05873313     0.05000
H1662       H  0.52325986  0.80629883  0.06730462     0.08200
H1663       H  0.53145640  0.83031622  0.09639355     0.08200
H1664       H  0.40269313  0.75887867  0.10974136     0.08200
H1665       H  0.41144899  0.78853963  0.12769800     0.08200
H1666       H  0.41501828  0.76518800  0.14810430     0.05000
C1667       C  0.47328396  0.66396564  0.07578954    -0.20800
C1668       C  0.44785620  0.65414400  0.08252005    -0.07400
C1669       C  0.44068641  0.66415684  0.10731791     0.13500
C1670       C  0.45894279  0.68465765  0.12338459    -0.20900
C1671       C  0.48426536  0.69599709  0.11504078    -0.07400
C1672       C  0.49163372  0.68496772  0.09145605     0.13500
C1673       C  0.01807356  0.69543949  0.08194244    -0.24200
H1674       H  0.47872139  0.65604510  0.05696680     0.14800
H1675       H  0.45307964  0.69267362  0.14162482     0.14800
C1676       C  0.41381484  0.65334628  0.11717606    -0.24200
H1677       H  0.02024708  0.68328817  0.06477881     0.05000
H1678       H  0.02951074  0.69693336  0.10245493     0.08200
H1679       H  0.02528421  0.71398250  0.07092572     0.08200
H1680       H  0.40579450  0.63324328  0.12219098     0.08200
H1681       H  0.40288363  0.65605795  0.09880992     0.08200
H1682       H  0.41192124  0.66234649  0.13845325     0.05000
C1683       C  0.04881737  0.82378509  0.27677037    -0.20800
C1684       C  0.03598019  0.81907617  0.24879254    -0.07400
C1685       C  0.02635281  0.83440481  0.23927034     0.13500
C1686       C  0.03104373  0.85506358  0.25734992    -0.20900
C1687       C  0.04559459  0.86108403  0.28442899    -0.07400
C1688       C  0.05374592  0.84447638  0.29486441     0.13500
C1689       C  0.06860508  0.84863336  0.32408335    -0.24200
H1690       H  0.05604278  0.81173109  0.28375034     0.14800
H1691       H  0.02425356  0.86722276  0.24936376     0.14800
C1692       C  0.51487004  0.83116743  0.20736392    -0.24200
H1693       H  0.07301890  0.83351873  0.32828007     0.05000
H1694       H  0.05773062  0.84906896  0.34437305     0.08200
H1695       H  0.08661623  0.86630932  0.32232097     0.08200
H1696       H  0.49750014  0.81282794  0.20740828     0.08200
H1697       H  0.52726118  0.83167504  0.18832359     0.08200
H1698       H  0.50976051  0.84571306  0.20258534     0.05000
C1699       C  0.02072907  0.69432016  0.24625921    -0.20800
C1700       C  0.03559893  0.71974672  0.25256388    -0.07400
C1701       C  0.05173918  0.72719244  0.27838747     0.13500
C1702       C  0.05507385  0.70936130  0.29445160    -0.20900
C1703       C  0.04263620  0.68424642  0.28554663    -0.07400
C1704       C  0.02391831  0.67639621  0.26250677     0.13500
C1705       C  0.00718870  0.64931554  0.25479497    -0.24200
H1706       H  0.00763330  0.68854271  0.22724937     0.14800
H1707       H  0.06858895  0.71542184  0.31300199     0.14800
C1708       C  0.56526933  0.75381862  0.28922581    -0.24200
H1709       H  0.01797296  0.64162330  0.24331359     0.05000
H1710       H  0.99825499  0.63861771  0.27627303     0.08200
H1711       H  0.99210912  0.64667765  0.23866679     0.08200
H1712       H  0.55170549  0.76045668  0.29274998     0.08200
H1713       H  0.07983586  0.76590336  0.27207790     0.08200
H1714       H  0.57490949  0.75574646  0.31156591     0.05000
C1715       C  0.22639048  0.54316863  0.12338493    -0.20800
C1716       C  0.21329562  0.51796344  0.11471296    -0.07400
C1717       C  0.19485538  0.51059560  0.09134154     0.13500
C1718       C  0.19180137  0.52885922  0.07564304    -0.20900
C1719       C  0.20672357  0.55420206  0.08245575    -0.07400
C1720       C  0.22345320  0.56132826  0.10757788     0.13500
C1721       C  0.23829710  0.58805149  0.11798012    -0.24200
H1722       H  0.24002743  0.54905247  0.14176657     0.14800
H1723       H  0.17864427  0.52342998  0.05673018     0.14800
C1724       C  0.17830856  0.48372202  0.08259155    -0.24200
H1725       H  0.24872016  0.58982294  0.13960956     0.05000
H1726       H  0.22554718  0.59552361  0.12257324     0.08200
H1727       H  0.25219573  0.59958219  0.10007500     0.08200
H1728       H  0.16800673  0.97209860  0.10320481     0.08200
H1729       H  0.18945919  0.47627846  0.07147193     0.08200
H1730       H  0.16376107  0.48146955  0.06579307     0.05000
C1731       C  0.32042853  0.54143989  0.12727429    -0.20800
C1732       C  0.30693654  0.51680604  0.11669598    -0.07400
C1733       C  0.31624740  0.50957580  0.09099423     0.13500
C1734       C  0.33748799  0.52765503  0.07517580    -0.20900
C1735       C  0.34935227  0.55270332  0.08405126    -0.07400
C1736       C  0.34138824  0.55948459  0.11123416     0.13500
C1737       C  0.35502210  0.58562939  0.12369686    -0.24200
H1738       H  0.31380828  0.54701842  0.14733979     0.14800
H1739       H  0.34395260  0.52246619  0.05461599     0.14800
C1740       C  0.30402207  0.48302901  0.07988854    -0.24200
H1741       H  0.34710849  0.58716262  0.14619519     0.05000
H1742       H  0.35378560  0.59882392  0.10737550     0.08200
H1743       H  0.37483177  0.59109900  0.12749361     0.08200
H1744       H  0.28544033  0.47740940  0.06999152     0.08200
H1745       H  0.30210914  0.97104460  0.10084737     0.08200
H1746       H  0.31519329  0.48058642  0.06142256     0.05000
C1747       C  0.16895305  0.97826167  0.23957797    -0.20800
C1748       C  0.18328168  0.96806272  0.25047196    -0.07400
C1749       C  0.17730984  0.95550284  0.27923017     0.13500
C1750       C  0.15562820  0.95113861  0.29478931    -0.20900
C1751       C  0.13950042  0.95876295  0.28224399    -0.07400
C1752       C  0.14702257  0.97374753  0.25498479     0.13500
C1753       C  0.13211766  0.98473848  0.24141692    -0.24200
H1754       H  0.17395804  0.98828355  0.21771661     0.14800
H1755       H  0.15068327  0.94049311  0.31616057     0.14800
C1756       C  0.19369937  0.94658595  0.29362462    -0.24200
H1757       H  0.14207292  0.99750922  0.22176306     0.05000
H1758       H  0.12877142  0.99562027  0.25933250     0.08200
H1759       H  0.11412057  0.96978915  0.23233586     0.08200
H1760       H  0.21164710  0.45884901  0.29505073     0.08200
H1761       H  0.19388061  0.93181813  0.27932804     0.08200
H1762       H  0.18707455  0.93865367  0.31712782     0.05000
C1763       C  0.30534464  0.97688935  0.24451603    -0.20800
C1764       C  0.27991664  0.96208035  0.25149958    -0.07400
C1765       C  0.27247441  0.94501137  0.27647368     0.13500
C1766       C  0.29042878  0.94174407  0.29212602    -0.20900
C1767       C  0.31564533  0.95484195  0.28333806    -0.07400
C1768       C  0.32337756  0.97344461  0.26003654     0.13500
C1769       C  0.35044791  0.98976251  0.25139140    -0.24200
H1770       H  0.31099454  0.99021391  0.22562799     0.14800
H1771       H  0.28445846  0.92789215  0.31042133     0.14800
C1772       C  0.24567061  0.93029116  0.28699486    -0.24200
H1773       H  0.35307922  0.00455988  0.23468605     0.05000
H1774       H  0.35782043  0.97858103  0.24024396     0.08200
H1775       H  0.36145557  0.99895703  0.27241232     0.08200
H1776       H  0.23390914  0.91715911  0.26878811     0.08200
H1777       H  0.23855929  0.44266730  0.29175099     0.08200
H1778       H  0.24337737  0.41864545  0.30764096     0.05000
C1779       C  0.12224962  0.85573531  0.11053131    -0.20800
C1780       C  0.10415501  0.85125076  0.13310078    -0.07400
C1781       C  0.10730018  0.87057699  0.15310673     0.13500
C1782       C  0.13015181  0.89279045  0.15309965    -0.20900
C1783       C  0.14984636  0.89578506  0.13385318    -0.07400
C1784       C  0.14540142  0.87770825  0.11097549     0.13500
C1785       C  0.16566900  0.88014848  0.08924786    -0.24200
H1786       H  0.11939492  0.84089930  0.09487711     0.14800
H1787       H  0.13337800  0.90700048  0.17001159     0.14800
C1788       C  0.08697723  0.86732246  0.17534893    -0.24200
H1789       H  0.15901722  0.86388916  0.07358165     0.05000
H1790       H  0.18154800  0.88143209  0.10270082     0.08200
H1791       H  0.17215133  0.89704588  0.07463822     0.08200
H1792       H  0.08295829  0.85228767  0.19228980     0.08200
H1793       H  0.06975534  0.86255561  0.16224656     0.08200
H1794       H  0.09231118  0.88460247  0.18859829     0.05000
C1795       C  0.34532854  0.78573044  0.11105666    -0.20800
C1796       C  0.34969490  0.79839113  0.08284676    -0.07400
C1797       C  0.33478128  0.80870513  0.07419881     0.13500
C1798       C  0.31445620  0.80439952  0.09301842    -0.20900
C1799       C  0.30860518  0.78988712  0.12024181    -0.07400
C1800       C  0.32516995  0.78151429  0.13014503     0.13500
C1801       C  0.32143218  0.76714809  0.15983668    -0.24200
H1802       H  0.35722929  0.77819178  0.11752094     0.14800
H1803       H  0.30240047  0.81147239  0.08556676     0.14800
C1804       C  0.33937736  0.82292313  0.04423198    -0.24200
H1805       H  0.33646834  0.76252906  0.16358137     0.05000
H1806       H  0.30352333  0.74932161  0.15916351     0.08200
H1807       H  0.32163738  0.77847725  0.17986426     0.08200
H1808       H  0.33802089  0.81091185  0.02440790     0.08200
H1809       H  0.35825717  0.83960969  0.04443269     0.08200
H1810       H  0.32560064  0.82926339  0.04066130     0.05000
C1811       C  0.21679700  0.65752732  0.10858612    -0.20800
C1812       C  0.20429793  0.65330824  0.08036970    -0.07400
C1813       C  0.19546078  0.66931755  0.07086260     0.13500
C1814       C  0.20052422  0.69001356  0.08918247    -0.20900
C1815       C  0.21445697  0.69532117  0.11673462    -0.07400
C1816       C  0.22192895  0.67813431  0.12704112     0.13500
C1817       C  0.23612795  0.68145974  0.15665692    -0.24200
H1818       H  0.22349848  0.64504279  0.11559464     0.14800
H1819       H  0.19430231  0.70262497  0.08117819     0.14800
C1820       C  0.18199319  0.66545991  0.04056542    -0.24200
H1821       H  0.24002028  0.66597602  0.16071719     0.05000
H1822       H  0.22500676  0.68182156  0.17671282     0.08200
H1823       H  0.25438456  0.69891786  0.15558299     0.08200
H1824       H  0.16452015  0.64720811  0.04086467     0.08200
H1825       H  0.19400927  0.66587660  0.02111288     0.08200
H1826       H  0.17697891  0.68013318  0.03624656     0.05000
C1827       C  0.29336019  0.84661295  0.29606794    -0.20800
C1828       C  0.31789225  0.86070315  0.28463315    -0.07400
C1829       C  0.32526018  0.85117766  0.25917923     0.13500
C1830       C  0.30749406  0.82911213  0.24476342    -0.20900
C1831       C  0.28253094  0.81665969  0.25445860    -0.07400
C1832       C  0.27558669  0.82495862  0.28116919     0.13500
C1833       C  0.24940341  0.81109384  0.29404657    -0.24200
H1834       H  0.28753174  0.85324056  0.31588111     0.14800
H1835       H  0.31273715  0.82252223  0.22436220     0.14800
C1836       C  0.35149664  0.86414697  0.24640511    -0.24200
H1837       H  0.24764883  0.81934627  0.31607805     0.05000
H1838       H  0.24424988  0.79148680  0.29878295     0.08200
H1839       H  0.23600461  0.81161835  0.27747667     0.08200
H1840       H  0.36492921  0.86729537  0.26522450     0.08200
H1841       H  0.35583011  0.88213097  0.23554993     0.08200
H1842       H  0.35407817  0.85292696  0.22823110     0.05000
C1843       C  0.15488917  0.70207177  0.29562149    -0.20800
C1844       C  0.13773091  0.67962613  0.28124266    -0.07400
C1845       C  0.14476860  0.67329802  0.25267365     0.13500
C1846       C  0.16708318  0.69072384  0.23798449    -0.20900
C1847       C  0.18254856  0.71410889  0.25100942    -0.07400
C1848       C  0.17711543  0.71930399  0.28087640     0.13500
C1849       C  0.19477630  0.74308823  0.29719706    -0.24200
H1850       H  0.15049338  0.70682850  0.31802563     0.14800
H1851       H  0.17169438  0.68669352  0.21523826     0.14800
C1852       C  0.12900588  0.64860269  0.23700245    -0.24200
H1853       H  0.18821255  0.74374413  0.32097742     0.05000
H1854       H  0.19659613  0.75939651  0.28422894     0.08200
H1855       H  0.21336901  0.74450514  0.29903655     0.08200
H1856       H  0.11122596  0.64700335  0.22900474     0.08200
H1857       H  0.12525046  0.63318542  0.25327259     0.08200
H1858       H  0.13849702  0.64645828  0.21629563     0.05000
C1859       C  0.23453758  0.87839194  0.11333479    -0.20800
C1860       C  0.24549975  0.89538141  0.13759050    -0.07400
C1861       C  0.25954949  0.89113738  0.16008895     0.13500
C1862       C  0.25930610  0.86838234  0.16036553    -0.20900
C1863       C  0.24561027  0.84996274  0.13846043    -0.07400
C1864       C  0.23450117  0.85562665  0.11344911     0.13500
C1865       C  0.22082631  0.83694442  0.08838656    -0.24200
H1866       H  0.22405747  0.88188662  0.09589258     0.14800
H1867       H  0.26835496  0.86423138  0.17907785     0.14800
C1868       C  0.27394225  0.91016631  0.18462645    -0.24200
H1869       H  0.21266795  0.84415096  0.07110882     0.05000
H1870       H  0.20545790  0.81970743  0.09871453     0.08200
H1871       H  0.23391549  0.83247686  0.07604465     0.08200
H1872       H  0.26105280  0.91274751  0.20005709     0.08200
H1873       H  0.28711478  0.92820179  0.17347936     0.08200
H1874       H  0.28491611  0.90436209  0.19930338     0.05000
C1875       C  0.14926264  0.77089482  0.11418774    -0.20800
C1876       C  0.15195059  0.75536034  0.13565525    -0.07400
C1877       C  0.13111170  0.73823814  0.15326560     0.13500
C1878       C  0.10900948  0.73934077  0.15191414    -0.20900
C1879       C  0.10747783  0.75728589  0.13361163    -0.07400
C1880       C  0.12734469  0.77242230  0.11335064     0.13500
C1881       C  0.12654374  0.79199972  0.09336011    -0.24200
H1882       H  0.16522519  0.78379029  0.10049030     0.14800
H1883       H  0.09356520  0.72754451  0.16710034     0.14800
C1884       C  0.13244667  0.71943030  0.17428167    -0.24200
H1885       H  0.14397380  0.80270960  0.07965269     0.05000
H1886       H  0.12415940  0.80531337  0.10817953     0.08200
H1887       H  0.11074736  0.78307531  0.07696214     0.08200
H1888       H  0.14601198  0.72884409  0.19315511     0.08200
H1889       H  0.13821415  0.70790929  0.16065448     0.08200
H1890       H  0.11410040  0.70677842  0.18519999     0.05000
Fe1891     Fe  0.21614485  0.78442069  0.69744318     1.65800
Fe1892     Fe  0.24788272  0.75270511  0.68981776     1.73200
Fe1893     Fe  0.23034346  0.77274776  0.62496420     1.54400
O1894       O  0.19255915  0.76097582  0.62418355    -0.82200
O1895       O  0.27821545  0.76957601  0.66036732    -0.80500
O1896       O  0.18464016  0.77074024  0.67094569    -0.84700
O1897       O  0.23256054  0.81766253  0.67383206    -0.79500
O1898       O  0.22160385  0.73628514  0.61777688    -0.81300
O1899       O  0.26815233  0.78143760  0.72079717    -0.84100
C1900       C  0.23911444  0.82439251  0.64603159     0.96700
C1901       C  0.17794288  0.76224414  0.64388138     1.04100
O1902       O  0.23143706  0.76991128  0.67067593    -1.13000
O1903       O  0.21919196  0.73285622  0.72144810    -0.75500
O1904       O  0.19776466  0.75299530  0.72427767    -0.79000
O1905       O  0.23895487  0.80972000  0.62543448    -0.79700
C1906       C  0.20110298  0.73507032  0.73170490     0.95600
O1907       O  0.24568142  0.80018293  0.72723577    -0.77600
O1908       O  0.23027451  0.72240855  0.66080252    -0.82800
C1909       C  0.28351601  0.78113784  0.63471704     0.98200
C1910       C  0.22228449  0.71913763  0.63322809     1.04100
O1911       O  0.26784789  0.78482036  0.62003794    -0.78500
C1912       C  0.26451806  0.79797771  0.73320382     1.02400
Fe1913     Fe  0.21319814  0.93035722  0.69414615     1.65800
Fe1914     Fe  0.24708973  0.49291008  0.68646359     1.73200
Fe1915     Fe  0.22814537  0.95581125  0.62187777     1.54400
O1916       O  0.24116249  0.93065500  0.62331649    -0.82200
O1917       O  0.23243207  0.50732239  0.65483381    -0.80500
O1918       O  0.22544352  0.91081729  0.66802974    -0.84700
O1919       O  0.18037206  0.91605476  0.67058908    -0.79500
O1920       O  0.26446532  0.98380551  0.61521254    -0.81300
O1921       O  0.21735376  0.98641513  0.71490371    -0.84100
C1922       C  0.17533162  0.91452113  0.64204628     0.96700
C1923       C  0.23712453  0.91365165  0.64280978     1.04100
O1924       O  0.22949693  0.95986282  0.66737533    -1.13000
O1925       O  0.26430177  0.48250872  0.72013196    -0.75500
O1926       O  0.24411821  0.94156261  0.72062388    -0.79000
O1927       O  0.19148400  0.92710889  0.62151051    -0.79700
C1928       C  0.26143651  0.96236240  0.72970978     0.95600
O1929       O  0.19897346  0.94573440  0.72406796    -0.77600
O1930       O  0.27838750  0.50397514  0.65949191    -0.82800
C1931       C  0.22020452  0.50052259  0.62967527     0.98200
C1932       C  0.28170232  0.49998752  0.63155568     1.04100
O1933       O  0.21520226  0.98060694  0.61592682    -0.78500
C1934       C  0.20123611  0.96690498  0.72871979     1.02400
Fe1935     Fe  0.07135523  0.78588535  0.69315416     1.65800
Fe1936     Fe  0.50758098  0.75478904  0.68605125     1.73200
Fe1937     Fe  0.04599520  0.77316728  0.62065635     1.54400
O1938       O  0.07131130  0.81082725  0.62060606    -0.82200
O1939       O  0.49444884  0.72531604  0.65568722    -0.80500
O1940       O  0.08886680  0.81779515  0.66718603    -0.84700
O1941       O  0.08820898  0.76974547  0.66913963    -0.79500
O1942       O  0.01845439  0.78229517  0.61414085    -0.81300
O1943       O  0.01648321  0.73424511  0.71694339    -0.84100
C1944       C  0.08866183  0.76374778  0.64124738     0.96700
C1945       C  0.08672474  0.82507876  0.64054663     1.04100
O1946       O  0.04181509  0.77112986  0.66641369    -1.13000
O1947       O  0.01682449  0.78284806  0.71714043    -0.75500
O1948       O  0.05823673  0.80382171  0.72040384    -0.79000
O1949       O  0.07453059  0.76456089  0.62057367    -0.79700
C1950       C  0.03697238  0.80062703  0.72746388     0.95600
O1951       O  0.05756420  0.75614308  0.72281154    -0.77600
O1952       O  0.49541926  0.77347324  0.65790770    -0.82800
C1953       C  0.50106316  0.72036393  0.62995878     0.98200
C1954       C  0.50044538  0.78201194  0.63049762     1.04100
O1955       O  0.02079520  0.73588242  0.61493270    -0.78500
C1956       C  0.03649871  0.73785864  0.72969446     1.02400
Fe1957     Fe  0.23976769  0.62070367  0.52450352     1.65800
Fe1958     Fe  0.17660834  0.58846368  0.51758726     1.73200
Fe1959     Fe  0.21357774  0.60751892  0.95239538     1.54400
O1960       O  0.24160956  0.64457409  0.95141017    -0.82200
O1961       O  0.16442329  0.55737628  0.99024698    -0.80500
O1962       O  0.25588440  0.65319225  0.50004849    -0.84700
O1963       O  0.25713738  0.60606565  0.49872256    -0.79500
O1964       O  0.18809905  0.61962170  0.94715970    -0.81300
O1965       O  0.18604590  0.56983749  0.55039519    -0.84100
C1966       C  0.25447121  0.59600299  0.97266973     0.96700
C1967       C  0.25534389  0.65974709  0.97195186     1.04100
O1968       O  0.21002685  0.60563824  0.49809038    -1.13000
O1969       O  0.18482552  0.61792811  0.54734886    -0.75500
O1970       O  0.22597638  0.63694311  0.55377720    -0.79000
O1971       O  0.23908430  0.59492139  0.95250335    -0.79700
C1972       C  0.20485401  0.63470548  0.55943585     0.95600
O1973       O  0.22738866  0.59023328  0.55242983    -0.77600
O1974       O  0.16239961  0.60405210  0.98759370    -0.82800
C1975       C  0.16905326  0.55390770  0.96258058     0.98200
C1976       C  0.16860607  0.61560013  0.96184650     1.04100
O1977       O  0.18607608  0.57110427  0.94646695    -0.78500
C1978       C  0.20644915  0.57256280  0.56081154     1.02400
Fe1979     Fe  0.38047863  0.61971787  0.52534657     1.65800
Fe1980     Fe  0.41311258  0.58883564  0.52086241     1.73200
Fe1981     Fe  0.39521755  0.60633370  0.95407683     1.54400
O1982       O  0.35755443  0.59505990  0.95319016    -0.82200
O1983       O  0.44479224  0.60747380  0.99258581    -0.80500
O1984       O  0.34867545  0.60319942  0.49937666    -0.84700
O1985       O  0.39549527  0.65169068  0.49964545    -0.79500
O1986       O  0.38546733  0.56962517  0.94906078    -0.81300
O1987       O  0.43193956  0.61776618  0.55188071    -0.84100
C1988       C  0.40315310  0.65778126  0.97202114     0.96700
C1989       C  0.34211645  0.59400264  0.97341765     1.04100
O1990       O  0.39633243  0.60501462  0.50005474    -1.13000
O1991       O  0.38403673  0.56889526  0.55164752    -0.75500
O1992       O  0.36348757  0.58984748  0.55475519    -0.79000
O1993       O  0.40504239  0.64350170  0.95260101    -0.79700
C1994       C  0.36656612  0.57184534  0.56248147     0.95600
O1995       O  0.41047757  0.63784341  0.55396561    -0.77600
O1996       O  0.39843759  0.55865124  0.99094308    -0.82800
C1997       C  0.44911127  0.61696030  0.96562554     0.98200
C1998       C  0.38835879  0.55377410  0.96444886     1.04100
O1999       O  0.43243869  0.61748901  0.94917334    -0.78500
C2000       C  0.42869518  0.63520622  0.56200465     1.02400
Fe2001     Fe  0.38294463  0.76452455  0.52661222     1.65800
Fe2002     Fe  0.41432813  0.82743362  0.51944217     1.73200
Fe2003     Fe  0.39588496  0.79054364  0.95428162     1.54400
O2004       O  0.40281975  0.76106776  0.95401086    -0.82200
O2005       O  0.39534345  0.83975817  0.99240664    -0.80500
O2006       O  0.40193422  0.75007309  0.50383193    -0.84700
O2007       O  0.35225208  0.74564265  0.49874517    -0.79500
O2008       O  0.43359197  0.81386400  0.94958288    -0.81300
O2009       O  0.38685054  0.81797774  0.55291863    -0.84100
C2010       C  0.34435180  0.74884376  0.97211496     0.96700
C2011       C  0.40604071  0.74847456  0.97484254     1.04100
O2012       O  0.39759836  0.79426416  0.50024751    -1.13000
O2013       O  0.43564851  0.81894538  0.54830049    -0.75500
O2014       O  0.41127400  0.77869812  0.55826444    -0.79000
O2015       O  0.35790441  0.76664135  0.95398796    -0.79700
C2016       C  0.43089595  0.79922605  0.56274965     0.95600
O2017       O  0.36305302  0.77659037  0.55202971    -0.77600
O2018       O  0.44365479  0.84050804  0.98850395    -0.82800
C2019       C  0.38803072  0.83594900  0.96453279     0.98200
C2020       C  0.44919869  0.83322267  0.96374653     1.04100
O2021       O  0.38875835  0.81946262  0.94790744    -0.78500
C2022       C  0.36780545  0.79785685  0.56147397     1.02400
Fe2023     Fe  0.40464664  0.95396332  0.85951546     1.65800
Fe2024     Fe  0.34144080  0.92128733  0.85325989     1.73200
Fe2025     Fe  0.37841008  0.94008618  0.78751285     1.54400
O2026       O  0.40370901  0.97808245  0.78658122    -0.82200
O2027       O  0.32870508  0.89079650  0.82421493    -0.80500
O2028       O  0.42073977  0.98569857  0.83341209    -0.84700
O2029       O  0.42169870  0.93838005  0.83514923    -0.79500
O2030       O  0.35067513  0.94893807  0.78147610    -0.81300
O2031       O  0.35105031  0.90198152  0.88460356    -0.84100
C2032       C  0.42116370  0.93092737  0.80779537     0.96700
C2033       C  0.41865630  0.99281721  0.80664183     1.04100
O2034       O  0.37476053  0.93839905  0.83337764    -1.13000
O2035       O  0.34989104  0.95004684  0.88435454    -0.75500
O2036       O  0.39130591  0.97126755  0.88740489    -0.79000
O2037       O  0.40666792  0.93113014  0.78721914    -0.79700
C2038       C  0.37004033  0.96791340  0.89471466     0.95600
O2039       O  0.39223100  0.92439770  0.88905841    -0.77600
O2040       O  0.32759315  0.93807261  0.82442707    -0.82800
C2041       C  0.33485838  0.88621066  0.79790861     0.98200
C2042       C  0.33264270  0.94734335  0.79734522     1.04100
O2043       O  0.35328071  0.90261486  0.78256869    -0.78500
C2044       C  0.37148839  0.90586403  0.89631162     1.02400
Fe2045     Fe  0.04847198  0.95172796  0.86195793     1.65800
Fe2046     Fe  0.08117502  0.92116123  0.85307071     1.73200
Fe2047     Fe  0.06033779  0.93867402  0.78898735     1.54400
O2048       O  0.02255198  0.92610695  0.79041286    -0.82200
O2049       O  0.11069137  0.93894447  0.82267435    -0.80500
O2050       O  0.01590100  0.93641053  0.83744604    -0.84700
O2051       O  0.06322293  0.98409399  0.83712800    -0.79500
O2052       O  0.05178604  0.90227792  0.78270615    -0.81300
O2053       O  0.10127814  0.95003508  0.88368579    -0.84100
C2054       C  0.06939469  0.99043716  0.80921176     0.96700
C2055       C  0.00834000  0.92703225  0.81094479     1.04100
O2056       O  0.06334670  0.93717283  0.83462911    -1.13000
O2057       O  0.05342367  0.90105675  0.88548456    -0.75500
O2058       O  0.03203762  0.92115277  0.88986346    -0.79000
O2059       O  0.06855845  0.97548106  0.78859929    -0.79700
C2060       C  0.03579517  0.90347392  0.89694180     0.95600
O2061       O  0.07894994  0.96892032  0.89021396    -0.77600
O2062       O  0.06387574  0.89053691  0.82469018    -0.82800
C2063       C  0.11453393  0.94962539  0.79645065     0.98200
C2064       C  0.05412590  0.88605199  0.79804935     1.04100
O2065       O  0.09760972  0.95123719  0.78195693    -0.78500
C2066       C  0.09780759  0.96669355  0.89595112     1.02400
Fe2067     Fe  0.04584445  0.59570941  0.86107839     1.65800
Fe2068     Fe  0.07884689  0.65887940  0.85401788     1.73200
Fe2069     Fe  0.05830605  0.62203106  0.78880598     1.54400
O2070       O  0.06770898  0.59419631  0.78735389    -0.82200
O2071       O  0.06191662  0.67319293  0.82591732    -0.80500
O2072       O  0.05969183  0.57787808  0.83487460    -0.84700
O2073       O  0.01299435  0.57992678  0.83707900    -0.79500
O2074       O  0.09569084  0.64753786  0.78199416    -0.81300
O2075       O  0.05090441  0.65099243  0.88624965    -0.84100
C2076       C  0.00578935  0.58152896  0.81019185     0.96700
C2077       C  0.06714281  0.57886801  0.80731689     1.04100
O2078       O  0.06101987  0.62556889  0.83458628    -1.13000
O2079       O  0.09832252  0.64899601  0.88460915    -0.75500
O2080       O  0.07670872  0.60774503  0.88845233    -0.79000
O2081       O  0.02049184  0.59608939  0.78954528    -0.79700
C2082       C  0.09514597  0.62856120  0.89554120     0.95600
O2083       O  0.03020457  0.60976614  0.89069370    -0.77600
O2084       O  0.10887897  0.67095474  0.82420539    -0.82800
C2085       C  0.05104771  0.66760440  0.79986830     0.98200
C2086       C  0.11276511  0.66517666  0.79735839     1.04100
O2087       O  0.04848887  0.64920904  0.78416819    -0.78500
C2088       C  0.03377940  0.63100442  0.89816486     1.02400
C2089       C  0.09187469  0.55877189  0.81850658    -0.20800
C2090       C  0.07473977  0.56057590  0.79900692    -0.07400
C2091       C  0.06101256  0.54145841  0.77755610     0.13500
C2092       C  0.06270077  0.51965789  0.77862817    -0.20900
C2093       C  0.07715001  0.51653189  0.80129501    -0.07400
C2094       C  0.09320910  0.53687575  0.82002458     0.13500
C2095       C  0.11100350  0.53521900  0.84248596    -0.24200
H2096       H  0.10265882  0.57374267  0.83455189     0.14800
H2097       H  0.04864797  0.00333306  0.76421666     0.14800
C2098       C  0.04279388  0.54295525  0.75578513    -0.24200
H2099       H  0.12296861  0.55330727  0.85406982     0.05000
H2100       H  0.12335901  0.52990975  0.82987683     0.08200
H2101       H  0.10070070  0.52126977  0.86087332     0.08200
H2102       H  0.05281464  0.55940300  0.74036136     0.08200
H2103       H  0.02832024  0.54465095  0.76917697     0.08200
H2104       H  0.03324957  0.52613912  0.74102154     0.05000
C2105       C  0.43788136  0.53509192  0.82242944    -0.20800
C2106       C  0.43439977  0.51825357  0.79868742    -0.07400
C2107       C  0.45095315  0.52645266  0.77315777     0.13500
C2108       C  0.47343299  0.54918837  0.77535498    -0.20900
C2109       C  0.47895326  0.56382927  0.80214169    -0.07400
C2110       C  0.45992846  0.55797243  0.82435413     0.13500
C2111       C  0.46308889  0.57528292  0.85069649    -0.24200
H2112       H  0.42435346  0.52929397  0.84115938     0.14800
H2113       H  0.48756369  0.55430727  0.75751700     0.14800
C2114       C  0.44570376  0.51073675  0.74466670    -0.24200
H2115       H  0.44557440  0.56845158  0.86430593     0.05000
H2116       H  0.46820128  0.59394886  0.84131976     0.08200
H2117       H  0.47769111  0.57696627  0.86691310     0.08200
H2118       H  0.42783246  0.00991350  0.73497089     0.08200
H2119       H  0.44346518  0.99413007  0.75011412     0.08200
H2120       H  0.46084174  0.51980742  0.72714889     0.05000
C2121       C  0.44134940  0.90668498  0.82182652    -0.20800
C2122       C  0.43913635  0.92259023  0.80044351    -0.07400
C2123       C  0.45766064  0.93458407  0.77743281     0.13500
C2124       C  0.47943031  0.93285262  0.77880015    -0.20900
C2125       C  0.48314704  0.92008305  0.80319487    -0.07400
C2126       C  0.46327596  0.90535061  0.82357708     0.13500
C2127       C  0.46552282  0.88901262  0.84786647    -0.24200
H2128       H  0.42677182  0.89701726  0.83898146     0.14800
H2129       H  0.49472425  0.94392242  0.76304419     0.14800
C2130       C  0.45593821  0.95156674  0.75385405    -0.24200
H2131       H  0.44777381  0.87797531  0.86085630     0.05000
H2132       H  0.98083196  0.90233489  0.86681683     0.08200
H2133       H  0.47032335  0.87581181  0.83658111     0.08200
H2134       H  0.45538400  0.96700698  0.76605765     0.08200
H2135       H  0.43883933  0.94107897  0.73980452     0.08200
H2136       H  0.47224092  0.95976449  0.73787438     0.05000
C2137       C  0.39154974  0.87740797  0.95975589    -0.20800
C2138       C  0.37982215  0.85247033  0.95027094    -0.07400
C2139       C  0.36194570  0.84455574  0.92624077     0.13500
C2140       C  0.35810131  0.86225560  0.91053415    -0.20900
C2141       C  0.37182742  0.88757253  0.91800329    -0.07400
C2142       C  0.38789840  0.89509462  0.94387890     0.13500
C2143       C  0.40129097  0.92170454  0.95493497    -0.24200
H2144       H  0.40473245  0.88343195  0.97868291     0.14800
H2145       H  0.34541917  0.85649397  0.89108442     0.14800
C2146       C  0.34681470  0.81760906  0.91696122    -0.24200
H2147       H  0.41127240  0.92366696  0.97700389     0.05000
H2148       H  0.38763322  0.92814389  0.95898641     0.08200
H2149       H  0.41540046  0.93398133  0.93766305     0.08200
H2150       H  0.33728212  0.80598398  0.93762568     0.08200
H2151       H  0.35896320  0.81122002  0.90614359     0.08200
H2152       H  0.33228985  0.81469620  0.89977297     0.05000
C2153       C  0.98819825  0.87387527  0.96051494    -0.20800
C2154       C  0.47444350  0.84904694  0.95013891    -0.07400
C2155       C  0.48417755  0.84147494  0.92511107     0.13500
C2156       C  0.50597300  0.85931383  0.90996802    -0.20900
C2157       C  0.01775940  0.88454378  0.91833026    -0.07400
C2158       C  0.00974444  0.89149813  0.94524356     0.13500
C2159       C  0.02384804  0.91750932  0.95807265    -0.24200
H2160       H  0.98171698  0.87979173  0.98038232     0.14800
H2161       H  0.51258452  0.85411555  0.88953906     0.14800
C2162       C  0.47182719  0.81498644  0.91373645    -0.24200
H2163       H  0.01576887  0.91919073  0.98035543     0.05000
H2164       H  0.02345571  0.93116205  0.94175836     0.08200
H2165       H  0.04337850  0.92226934  0.96240543     0.08200
H2166       H  0.45364919  0.80981685  0.90291632     0.08200
H2167       H  0.46911682  0.80220556  0.93332685     0.08200
H2168       H  0.48334636  0.81238562  0.89590573     0.05000
C2169       C  0.50527943  0.64685240  0.91151928    -0.20800
C2170       C  0.01612630  0.63186122  0.92048649    -0.07400
C2171       C  0.00724621  0.61561647  0.94631667     0.13500
C2172       C  0.98631517  0.61268906  0.96242675    -0.20900
C2173       C  0.47414926  0.62583138  0.95197099    -0.07400
C2174       C  0.48401539  0.64355369  0.92755088     0.13500
C2175       C  0.47234402  0.65894074  0.91806304    -0.24200
H2176       H  0.51195439  0.65909155  0.89149360     0.14800
H2177       H  0.97885101  0.59921565  0.98117091     0.14800
C2178       C  0.01975817  0.60137458  0.95724023    -0.24200
H2179       H  0.48403607  0.67341851  0.90075869     0.05000
H2180       H  0.47022935  0.66852001  0.93861382     0.08200
H2181       H  0.45391527  0.64704250  0.90729376     0.08200
H2182       H  0.03963391  0.61470994  0.96179609     0.08200
H2183       H  0.01810545  0.58753408  0.93979006     0.08200
H2184       H  0.01132728  0.59102526  0.97908677     0.05000
C2185       C  0.38279054  0.99135650  0.94348649    -0.20800
C2186       C  0.36956295  0.98638625  0.91570416    -0.07400
C2187       C  0.36041939  0.00209465  0.90601003     0.13500
C2188       C  0.36683698  0.52352861  0.92195355    -0.20900
C2189       C  0.38034116  0.52907744  0.94987943    -0.07400
C2190       C  0.38745934  0.51190963  0.96125683     0.13500
C2191       C  0.40153070  0.51581825  0.99109836    -0.24200
H2192       H  0.38997866  0.97927437  0.95047201     0.14800
H2193       H  0.36099319  0.53619083  0.91302027     0.14800
C2194       C  0.34687830  0.99787077  0.87570449    -0.24200
H2195       H  0.40531054  0.50036643  0.99599182     0.05000
H2196       H  0.39038882  0.51670065  0.01079528     0.08200
H2197       H  0.41982624  0.53321730  0.98970219     0.08200
H2198       H  0.32956806  0.97948714  0.87611309     0.08200
H2199       H  0.35901007  0.99837994  0.85631736     0.08200
H2200       H  0.34160779  0.01233446  0.87118546     0.05000
C2201       C  0.42831918  0.70245182  0.98256084    -0.20800
C2202       C  0.41078742  0.68358539  0.96359800    -0.07400
C2203       C  0.39674248  0.68903940  0.94251427     0.13500
C2204       C  0.39847137  0.71246886  0.94342664    -0.20900
C2205       C  0.41305331  0.72987162  0.96590964    -0.07400
C2206       C  0.42960439  0.72566219  0.98405485     0.13500
C2207       C  0.44793761  0.74519916  0.00573894    -0.24200
H2208       H  0.43941296  0.69825547  0.99825456     0.14800
H2209       H  0.38601642  0.71593550  0.92932158     0.14800
C2210       C  0.37753879  0.66925827  0.92211131    -0.24200
H2211       H  0.46038104  0.73920592  0.01662941     0.05000
H2212       H  0.43866355  0.74943220  0.52516994     0.08200
H2213       H  0.45977866  0.76266243  0.99263933     0.08200
H2214       H  0.36384699  0.65511382  0.43670252     0.08200
H2215       H  0.38641582  0.66122600  0.90717051     0.08200
H2216       H  0.36824514  0.67667878  0.90690877     0.05000
C2217       C  0.12617936  0.61011157  0.95760751    -0.20800
C2218       C  0.15118439  0.62286390  0.94763911    -0.07400
C2219       C  0.15805787  0.64058547  0.92329342     0.13500
C2220       C  0.13943398  0.64321310  0.90797780    -0.20900
C2221       C  0.11422081  0.62860137  0.91618067    -0.07400
C2222       C  0.10768578  0.61273197  0.94229455     0.13500
C2223       C  0.08138582  0.59893910  0.95471066    -0.24200
H2224       H  0.12071829  0.59710209  0.97681585     0.14800
H2225       H  0.14446003  0.65583362  0.88838884     0.14800
C2226       C  0.18477031  0.65679880  0.91310624    -0.24200
H2227       H  0.08002427  0.58864035  0.97640332     0.05000
H2228       H  0.06862947  0.58515888  0.93771511     0.08200
H2229       H  0.07522831  0.61255382  0.96005852     0.08200
H2230       H  0.19190911  0.64535594  0.90212310     0.08200
H2231       H  0.19644080  0.66686210  0.93334399     0.08200
H2232       H  0.18667382  0.67092615  0.89575074     0.05000
C2233       C  0.12916743  0.51380932  0.96099162    -0.20800
C2234       C  0.15289821  0.52923639  0.94797681    -0.07400
C2235       C  0.15961105  0.52136730  0.92039440     0.13500
C2236       C  0.14183083  0.49955614  0.90564687    -0.20900
C2237       C  0.11711374  0.98551412  0.91621819    -0.07400
C2238       C  0.11108472  0.99221290  0.94487398     0.13500
C2239       C  0.08590737  0.97660933  0.95983620    -0.24200
H2240       H  0.12383827  0.01907514  0.98143619     0.14800
H2241       H  0.14645197  0.49418814  0.88377309     0.14800
C2242       C  0.18515465  0.53578975  0.90580174    -0.24200
H2243       H  0.08471110  0.98401433  0.98280608     0.05000
H2244       H  0.08265518  0.95747083  0.96334886     0.08200
H2245       H  0.07098663  0.97610878  0.94514803     0.08200
H2246       H  0.19965440  0.53893469  0.92312388     0.08200
H2247       H  0.18817658  0.55384411  0.89661642     0.08200
H2248       H  0.18743630  0.52562921  0.88601437     0.05000
C2249       C  0.29043208  0.69066156  0.94021517    -0.20800
C2250       C  0.27298169  0.68586096  0.96388388    -0.07400
C2251       C  0.27686024  0.70511812  0.98458093     0.13500
C2252       C  0.29978082  0.72719277  0.98425999    -0.20900
C2253       C  0.31868981  0.73059851  0.96345982    -0.07400
C2254       C  0.31348512  0.71284315  0.93985848     0.13500
C2255       C  0.33245819  0.71543844  0.91588640    -0.24200
H2256       H  0.28732477  0.67600255  0.92408260     0.14800
H2257       H  0.30360681  0.74103811  0.00195411     0.14800
C2258       C  0.25772127  0.70230385  0.00845467    -0.24200
H2259       H  0.32481700  0.71456937  0.89239934     0.08600
H2260       H  0.33650821  0.69993450  0.91849390     0.08200
H2261       H  0.35029390  0.73314251  0.91756130     0.08200
H2262       H  0.26547391  0.70241676  0.53344496     0.08200
H2263       H  0.23982183  0.68469059  0.00586406     0.08200
H2264       H  0.25367024  0.71780940  0.00591843     0.05000
C2265       C  0.28640350  0.59397922  0.93977480    -0.20800
C2266       C  0.27108179  0.58584855  0.96619283    -0.07400
C2267       C  0.27585756  0.57239407  0.48852722     0.13500
C2268       C  0.29829619  0.57208423  0.48767998    -0.20900
C2269       C  0.31572507  0.58460203  0.96538658    -0.07400
C2270       C  0.30861910  0.59290405  0.93877369     0.13500
C2271       C  0.32464410  0.60148062  0.91005795    -0.24200
H2272       H  0.28216770  0.60307311  0.92119711     0.14800
H2273       H  0.30317016  0.56411597  0.50698895     0.14800
C2274       C  0.25765513  0.55913458  0.51463585    -0.24200
H2275       H  0.31629265  0.60763990  0.89174473     0.05000
H2276       H  0.32667370  0.58587104  0.90072726     0.08200
H2277       H  0.34334236  0.61715732  0.91525279     0.08200
H2278       H  0.23893966  0.54637167  0.50500812     0.08200
H2279       H  0.25645241  0.57261134  0.53035821     0.08200
H2280       H  0.26339355  0.54785060  0.52883678     0.05000
C2281       C  0.47446756  0.81104846  0.57433330    -0.20800
C2282       C  0.44953179  0.79934748  0.58408308    -0.07400
C2283       C  0.44254584  0.78549032  0.61198721     0.13500
C2284       C  0.46014786  0.78160952  0.62764771    -0.20900
C2285       C  0.48447175  0.79090168  0.61598751    -0.07400
C2286       C  0.49207920  0.80697117  0.58977151     0.13500
C2287       C  0.51848838  0.81977213  0.57756494    -0.24200
H2288       H  0.47986196  0.82216146  0.55323367     0.14800
H2289       H  0.45433344  0.76999947  0.64831125     0.14800
C2290       C  0.41659812  0.77470717  0.62537432    -0.24200
H2291       H  0.52132041  0.83331098  0.55886850     0.05000
H2292       H  0.52299174  0.80596417  0.56756575     0.08200
H2293       H  0.53164957  0.83016040  0.59651182     0.08200
H2294       H  0.40281244  0.75987888  0.61020562     0.08200
H2295       H  0.41171219  0.78963044  0.62800177     0.08200
H2296       H  0.41512023  0.76624492  0.64856134     0.05000
C2297       C  0.47277921  0.66413415  0.57584095    -0.20800
C2298       C  0.44737149  0.65412396  0.58287222    -0.07400
C2299       C  0.44027832  0.66405961  0.60783809     0.13500
C2300       C  0.45856577  0.68463694  0.62376245    -0.20900
C2301       C  0.48385482  0.69613108  0.61516493    -0.07400
C2302       C  0.49115424  0.68519734  0.59137942     0.13500
C2303       C  0.01850334  0.69534369  0.58147011    -0.24200
H2304       H  0.47817561  0.65629817  0.55687886     0.14800
H2305       H  0.45272971  0.69254570  0.64216212     0.14800
C2306       C  0.41347830  0.65306510  0.61809816    -0.24200
H2307       H  0.02072448  0.68324992  0.56426119     0.05000
H2308       H  0.02987916  0.69676841  0.60201860     0.08200
H2309       H  0.02575203  0.71392474  0.57054552     0.08200
H2310       H  0.40567973  0.63299483  0.62312567     0.08200
H2311       H  0.40229440  0.65564665  0.59996538     0.08200
H2312       H  0.41168681  0.66202580  0.63947612     0.05000
C2313       C  0.04832981  0.82347288  0.77659429    -0.20800
C2314       C  0.03630514  0.81912888  0.74804778    -0.07400
C2315       C  0.02764437  0.83505608  0.73765483     0.13500
C2316       C  0.03240355  0.85585091  0.75550859    -0.20900
C2317       C  0.04600025  0.86138656  0.78334651    -0.07400
C2318       C  0.05321916  0.84424230  0.79456465     0.13500
C2319       C  0.06697446  0.84784512  0.82460690    -0.24200
H2320       H  0.05488955  0.81101300  0.78421179     0.14800
H2321       H  0.02633924  0.86841940  0.74685386     0.14800
C2322       C  0.51330248  0.83056213  0.70864870    -0.24200
H2323       H  0.07075659  0.83237523  0.82936375     0.05000
H2324       H  0.05558521  0.84844848  0.84419381     0.08200
H2325       H  0.08525740  0.86527532  0.82363352     0.08200
H2326       H  0.49600569  0.81216031  0.70886395     0.08200
H2327       H  0.52556146  0.83114813  0.68938910     0.08200
H2328       H  0.50802455  0.84501569  0.70408762     0.05000
C2329       C  0.02062818  0.69418708  0.74693971    -0.20800
C2330       C  0.03593792  0.71968809  0.75251710    -0.07400
C2331       C  0.05232175  0.72732215  0.77811296     0.13500
C2332       C  0.05554935  0.70956033  0.79450157    -0.20900
C2333       C  0.04266160  0.68431205  0.78626423    -0.07400
C2334       C  0.02361517  0.67632108  0.76366200     0.13500
C2335       C  0.00626590  0.64914632  0.75706352    -0.24200
H2336       H  0.00726999  0.68826004  0.72821612     0.14800
H2337       H  0.06930206  0.71574174  0.81277959     0.14800
C2338       C  0.56467842  0.75348512  0.78953336    -0.24200
H2339       H  0.01648635  0.64076085  0.74578510     0.05000
H2340       H  0.99755830  0.63910542  0.77899694     0.08200
H2341       H  0.99103149  0.64647030  0.74118763     0.08200
H2342       H  0.55119456  0.76019745  0.79324238     0.08200
H2343       H  0.08070492  0.76583302  0.77104443     0.08200
H2344       H  0.57436813  0.75530872  0.81180614     0.05000
C2345       C  0.22626788  0.54303121  0.62326257    -0.20800
C2346       C  0.21282209  0.51775877  0.61499439    -0.07400
C2347       C  0.19411074  0.51034967  0.59197431     0.13500
C2348       C  0.19114952  0.52861643  0.57612580    -0.20900
C2349       C  0.20641324  0.55399479  0.58248502    -0.07400
C2350       C  0.22339485  0.56118606  0.60735769     0.13500
C2351       C  0.23858435  0.58797472  0.61741061    -0.24200
H2352       H  0.24011762  0.54895081  0.64139068     0.14800
H2353       H  0.17778645  0.52313668  0.55744708     0.14800
C2354       C  0.17716959  0.48342375  0.58378225    -0.24200
H2355       H  0.24911653  0.58978992  0.63895512     0.05000
H2356       H  0.22605947  0.59570914  0.62202341     0.08200
H2357       H  0.25242950  0.59925446  0.59932731     0.08200
H2358       H  0.16845466  0.97193842  0.60174313     0.08200
H2359       H  0.18796930  0.47562609  0.57256902     0.08200
H2360       H  0.16246124  0.48117293  0.56725146     0.05000
C2361       C  0.31882683  0.54166650  0.62663719    -0.20800
C2362       C  0.30604742  0.51683646  0.61668582    -0.07400
C2363       C  0.31575251  0.50964635  0.59138658     0.13500
C2364       C  0.33681198  0.52787770  0.57542953    -0.20900
C2365       C  0.34805820  0.55302156  0.58377326    -0.07400
C2366       C  0.33955774  0.55985675  0.61043475     0.13500
C2367       C  0.35239628  0.58622012  0.62219608    -0.24200
H2368       H  0.31179835  0.54722551  0.64632762     0.14800
H2369       H  0.34366112  0.52268161  0.55522755     0.14800
C2370       C  0.30415806  0.48296765  0.58096036    -0.24200
H2371       H  0.34410899  0.58784108  0.64434755     0.05000
H2372       H  0.35082554  0.59884620  0.60524311     0.08200
H2373       H  0.37229999  0.59233613  0.62641468     0.08200
H2374       H  0.28542221  0.47667004  0.57110888     0.08200
H2375       H  0.30139244  0.97019894  0.60005633     0.08200
H2376       H  0.31551914  0.48063532  0.56265834     0.05000
C2377       C  0.16902892  0.97851406  0.73905910    -0.20800
C2378       C  0.18308442  0.96798062  0.74985605    -0.07400
C2379       C  0.17687702  0.95521112  0.77846621     0.13500
C2380       C  0.15529574  0.95110791  0.79404406    -0.20900
C2381       C  0.13941733  0.95909538  0.78160658    -0.07400
C2382       C  0.14712802  0.97416639  0.75441144     0.13500
C2383       C  0.13242021  0.98535124  0.74077797    -0.24200
H2384       H  0.17420403  0.98865620  0.71728231     0.14800
H2385       H  0.15021258  0.94035797  0.81533536     0.14800
C2386       C  0.19291436  0.94579932  0.79269722    -0.24200
H2387       H  0.14246079  0.99806278  0.72110650     0.05000
H2388       H  0.12919028  0.99634072  0.75865021     0.08200
H2389       H  0.11436892  0.97049250  0.73169818     0.08200
H2390       H  0.21176909  0.45932934  0.79515114     0.08200
H2391       H  0.19293862  0.93106418  0.77816199     0.08200
H2392       H  0.18610316  0.93766396  0.81607396     0.05000
C2393       C  0.30526727  0.97680016  0.74398234    -0.20800
C2394       C  0.27985919  0.96207032  0.75108988    -0.07400
C2395       C  0.27246105  0.94511399  0.77618638     0.13500
C2396       C  0.29044740  0.94192133  0.79188948    -0.20900
C2397       C  0.31565048  0.95494011  0.78300108    -0.07400
C2398       C  0.32332560  0.97340086  0.75949690     0.13500
C2399       C  0.35035038  0.98959733  0.75054089    -0.24200
H2400       H  0.31087980  0.99002206  0.72497734     0.14800
H2401       H  0.28449781  0.92817243  0.81030817     0.14800
C2402       C  0.24567307  0.93042346  0.78677774    -0.24200
H2403       H  0.35292368  0.00432023  0.73374465     0.05000
H2404       H  0.35757395  0.97830008  0.73935410     0.08200
H2405       H  0.36152889  0.99889393  0.77141264     0.08200
H2406       H  0.23390651  0.91718328  0.76866320     0.08200
H2407       H  0.23774419  0.44116167  0.79142062     0.08200
H2408       H  0.24292634  0.41725777  0.80695161     0.05000
C2409       C  0.12266749  0.85540516  0.61023788    -0.20800
C2410       C  0.10440521  0.85102388  0.63251645    -0.07400
C2411       C  0.10727688  0.87050388  0.65204557     0.13500
C2412       C  0.13004613  0.89282149  0.65195846    -0.20900
C2413       C  0.14986756  0.89579601  0.63298331    -0.07400
C2414       C  0.14568764  0.87751853  0.61052662     0.13500
C2415       C  0.16615007  0.87994507  0.58917157    -0.24200
H2416       H  0.12003296  0.84044329  0.59494576     0.14800
H2417       H  0.13310335  0.90716228  0.66858812     0.14800
C2418       C  0.08671263  0.86733532  0.67378986    -0.24200
H2419       H  0.15974126  0.86352480  0.57383234     0.05000
H2420       H  0.18202917  0.88158125  0.60294650     0.08200
H2421       H  0.17254929  0.89666036  0.57423849     0.08200
H2422       H  0.08253994  0.85239941  0.69095260     0.08200
H2423       H  0.06963581  0.86245359  0.66029491     0.08200
H2424       H  0.09186276  0.88469054  0.68677122     0.05000
C2425       C  0.34497539  0.78515771  0.61085730    -0.20800
C2426       C  0.34997673  0.79871069  0.58327466    -0.07400
C2427       C  0.33552558  0.80965760  0.57513663     0.13500
C2428       C  0.31496033  0.80502678  0.59369225    -0.20900
C2429       C  0.30841208  0.78957008  0.62014669    -0.07400
C2430       C  0.32457831  0.78058460  0.62967098     0.13500
C2431       C  0.32026784  0.76529280  0.65867806    -0.24200
H2432       H  0.35655389  0.77716800  0.61697290     0.14800
H2433       H  0.30328070  0.81262678  0.58656076     0.14800
C2434       C  0.34085205  0.82491566  0.54593188    -0.24200
H2435       H  0.33525033  0.76058875  0.66236893     0.05000
H2436       H  0.30242927  0.74746642  0.65703247     0.08200
H2437       H  0.32003771  0.77596259  0.67920359     0.08200
H2438       H  0.33968071  0.81352085  0.52549686     0.08200
H2439       H  0.35983153  0.84140609  0.54703772     0.08200
H2440       H  0.32735393  0.83164788  0.54266158     0.05000
C2441       C  0.21685886  0.65720112  0.60899537    -0.20800
C2442       C  0.20440165  0.65308782  0.58072471    -0.07400
C2443       C  0.19549985  0.66910443  0.57143014     0.13500
C2444       C  0.20042832  0.68965617  0.58998486    -0.20900
C2445       C  0.21423094  0.69478961  0.61760263    -0.07400
C2446       C  0.22179178  0.67764823  0.62770672     0.13500
C2447       C  0.23603368  0.68103107  0.65728759    -0.24200
H2448       H  0.22364165  0.64475822  0.61587685     0.14800
H2449       H  0.19418645  0.70230192  0.58217672     0.14800
C2450       C  0.18211908  0.66543589  0.54110650    -0.24200
H2451       H  0.24047139  0.66587595  0.66097288     0.05000
H2452       H  0.22468040  0.68080161  0.67741946     0.08200
H2453       H  0.25398123  0.69883533  0.65648278     0.08200
H2454       H  0.16467200  0.64716257  0.54120651     0.08200
H2455       H  0.19421488  0.66603440  0.52164726     0.08200
H2456       H  0.17706758  0.68010438  0.53697139     0.05000
C2457       C  0.29459293  0.84634595  0.79607671    -0.20800
C2458       C  0.31879546  0.86111513  0.78392863    -0.07400
C2459       C  0.32599624  0.85217303  0.75771230     0.13500
C2460       C  0.30832082  0.83001681  0.74332765    -0.20900
C2461       C  0.28357252  0.81685454  0.75382512    -0.07400
C2462       C  0.27690209  0.82458391  0.78127013     0.13500
C2463       C  0.25112577  0.80994977  0.79514508    -0.24200
H2464       H  0.28891144  0.85247486  0.81648945     0.14800
H2465       H  0.31341188  0.82388637  0.72239742     0.14800
C2466       C  0.35194242  0.86585352  0.74410159    -0.24200
H2467       H  0.24964205  0.81780221  0.81764248     0.05000
H2468       H  0.24675898  0.79050924  0.79932511     0.08200
H2469       H  0.23702581  0.81011056  0.77948875     0.08200
H2470       H  0.36587280  0.86914379  0.76231333     0.08200
H2471       H  0.35558102  0.88381114  0.73383636     0.08200
H2472       H  0.35449318  0.85507450  0.72529985     0.05000
C2473       C  0.15337616  0.70462627  0.79547184    -0.20800
C2474       C  0.13792036  0.68083887  0.78298904    -0.07400
C2475       C  0.14649329  0.67359243  0.75647648     0.13500
C2476       C  0.16852615  0.69123482  0.74139519    -0.20900
C2477       C  0.18224803  0.71570619  0.75223851    -0.07400
C2478       C  0.17537624  0.72203002  0.78051973     0.13500
C2479       C  0.19136876  0.74710876  0.79512817    -0.24200
H2480       H  0.14775483  0.71018459  0.81642603     0.14800
H2481       H  0.17428285  0.68631153  0.72002251     0.14800
C2482       C  0.13276037  0.64752837  0.74374351    -0.24200
H2483       H  0.18381547  0.74859629  0.81791648     0.05000
H2484       H  0.19252400  0.76215804  0.78002357     0.08200
H2485       H  0.21035152  0.74990971  0.79890460     0.08200
H2486       H  0.11459007  0.64359144  0.73399262     0.08200
H2487       H  0.12980598  0.63390500  0.76236868     0.08200
H2488       H  0.14342320  0.64485951  0.72479813     0.05000
C2489       C  0.23364291  0.87800785  0.61303595    -0.20800
C2490       C  0.24543716  0.89551050  0.63654978    -0.07400
C2491       C  0.26034998  0.89182983  0.65828159     0.13500
C2492       C  0.26024809  0.86913678  0.65868557    -0.20900
C2493       C  0.24569611  0.85016304  0.63775386    -0.07400
C2494       C  0.23359115  0.85524784  0.61335474     0.13500
C2495       C  0.21876686  0.83598354  0.58933020    -0.24200
H2496       H  0.22252713  0.88111370  0.59614466     0.14800
H2497       H  0.27008757  0.86548191  0.67686356     0.14800
C2498       C  0.27554498  0.91143104  0.68188044    -0.24200
H2499       H  0.20993074  0.84282762  0.57254047     0.05000
H2500       H  0.20378256  0.81908698  0.60076538     0.08200
H2501       H  0.23121961  0.83109763  0.57619170     0.08200
H2502       H  0.26318416  0.91445512  0.69777261     0.08200
H2503       H  0.28836062  0.92917827  0.66987955     0.08200
H2504       H  0.28697166  0.90595192  0.69617382     0.05000
C2505       C  0.14907377  0.76986889  0.61274854    -0.20800
C2506       C  0.15231886  0.75527449  0.63511848    -0.07400
C2507       C  0.13193842  0.73885456  0.65384424     0.13500
C2508       C  0.10971856  0.73971603  0.65246917    -0.20900
C2509       C  0.10766081  0.75687094  0.63316682    -0.07400
C2510       C  0.12704709  0.77123089  0.61190701     0.13500
C2511       C  0.12565936  0.78986542  0.59070148    -0.24200
H2512       H  0.16469777  0.78219044  0.59817887     0.14800
H2513       H  0.09465293  0.72848259  0.66842562     0.14800
C2514       C  0.13399077  0.72120104  0.67620299    -0.24200
H2515       H  0.14277908  0.80007762  0.57630586     0.05000
H2516       H  0.12347045  0.80371462  0.60463844     0.08200
H2517       H  0.10952753  0.78017184  0.57492388     0.08200
H2518       H  0.14809127  0.73164781  0.69419709     0.08200
H2519       H  0.13948910  0.70909291  0.66343241     0.08200
H2520       H  0.11599193  0.70905142  0.68817974     0.05000
Fe2521     Fe  0.71604694  0.28345379  0.19831110     1.65800
Fe2522     Fe  0.74876553  0.25285947  0.18986534     1.73200
Fe2523     Fe  0.73075609  0.27287786  0.12564991     1.54400
O2524       O  0.69385140  0.26463476  0.12503842    -0.82200
O2525       O  0.78045495  0.27294149  0.16355473    -0.80500
O2526       O  0.68349238  0.26677914  0.17394903    -0.84700
O2527       O  0.72938356  0.31577257  0.17274148    -0.79500
O2528       O  0.71848149  0.23557683  0.11889183    -0.81300
O2529       O  0.76613614  0.27947500  0.22423887    -0.84100
C2530       C  0.73938395  0.32392191  0.14642442     0.96700
C2531       C  0.67804664  0.26214538  0.14562219     1.04100
O2532       O  0.73192211  0.26978130  0.17122385    -1.13000
O2533       O  0.71855127  0.23031382  0.21786294    -0.75500
O2534       O  0.70044635  0.25304514  0.22745822    -0.79000
O2535       O  0.74278797  0.31063370  0.12682075    -0.79700
C2536       C  0.70211727  0.23362346  0.23122201     0.95600
O2537       O  0.74674065  0.30167618  0.22559814    -0.77600
O2538       O  0.73427766  0.22440628  0.15775756    -0.82800
C2539       C  0.78432518  0.28116659  0.13601447     0.98200
C2540       C  0.72266010  0.21972334  0.13228727     1.04100
O2541       O  0.76740851  0.28152743  0.11974901    -0.78500
C2542       C  0.76389740  0.29756980  0.23423669     1.02400
Fe2543     Fe  0.71281049  0.42969006  0.19391171     1.65800
Fe2544     Fe  0.74703201  0.99316844  0.18618540     1.73200
Fe2545     Fe  0.72827486  0.45527897  0.12192657     1.54400
O2546       O  0.74167801  0.43037514  0.12369262    -0.82200
O2547       O  0.73281285  0.00770276  0.15400697    -0.80500
O2548       O  0.72474132  0.40994864  0.16771051    -0.84700
O2549       O  0.68012385  0.41594971  0.17027846    -0.79500
O2550       O  0.76439590  0.48356190  0.11544700    -0.81300
O2551       O  0.71712090  0.48576171  0.21494671    -0.84100
C2552       C  0.67533672  0.41416731  0.14165539     0.96700
C2553       C  0.73710278  0.41308855  0.14301143     1.04100
O2554       O  0.72939001  0.45924705  0.16739514    -1.13000
O2555       O  0.76375919  0.98274067  0.22047975    -0.75500
O2556       O  0.74366685  0.44059049  0.22032421    -0.79000
O2557       O  0.69174181  0.42636442  0.12121988    -0.79700
C2558       C  0.76090710  0.46126931  0.22983553     0.95600
O2559       O  0.69882789  0.44510906  0.22402569    -0.77600
O2560       O  0.77859622  0.00390255  0.15983959    -0.82800
C2561       C  0.72014282  0.00056825  0.12918864     0.98200
C2562       C  0.78192279  0.00008508  0.13183285     1.04100
O2563       O  0.71509332  0.47991486  0.11597287    -0.78500
C2564       C  0.70109538  0.46624816  0.22884575     1.02400
Fe2565     Fe  0.57155456  0.28645579  0.19308283     1.65800
Fe2566     Fe  0.00910641  0.25552012  0.18558834     1.73200
Fe2567     Fe  0.54622000  0.27348048  0.12071152     1.54400
O2568       O  0.57044575  0.31131940  0.12057004    -0.82200
O2569       O  0.99585194  0.22571065  0.15574471    -0.80500
O2570       O  0.58949000  0.31783201  0.16614609    -0.84700
O2571       O  0.58775326  0.26931133  0.16998454    -0.79500
O2572       O  0.51779204  0.28126599  0.11368060    -0.81300
O2573       O  0.51662733  0.23431647  0.21587439    -0.84100
C2574       C  0.58908394  0.26448649  0.14182869     0.96700
C2575       C  0.58659358  0.32532326  0.13999105     1.04100
O2576       O  0.54207762  0.27169117  0.16640210    -1.13000
O2577       O  0.51736202  0.28306561  0.21798851    -0.75500
O2578       O  0.55880756  0.30520892  0.21924728    -0.79000
O2579       O  0.57569677  0.26627236  0.12088068    -0.79700
C2580       C  0.53752519  0.30140121  0.22738526     0.95600
O2581       O  0.55741141  0.25725651  0.22373736    -0.77600
O2582       O  0.99650878  0.27376314  0.15734123    -0.82800
C2583       C  0.00230114  0.22058078  0.13002113     0.98200
C2584       C  0.00132367  0.28212522  0.12984433     1.04100
O2585       O  0.52206893  0.23590712  0.11565487    -0.78500
C2586       C  0.53645851  0.23838598  0.22952765     1.02400
Fe2587     Fe  0.73950244  0.12074173  0.02491026     1.65800
Fe2588     Fe  0.67642117  0.08865557  0.01702063     1.73200
Fe2589     Fe  0.71438795  0.10726074  0.45185834     1.54400
O2590       O  0.74240873  0.14434267  0.45131524    -0.82200
O2591       O  0.66471934  0.05747248  0.48932863    -0.80500
O2592       O  0.75601247  0.15313266  0.00018242    -0.84700
O2593       O  0.75702094  0.10591188  0.99990812    -0.79500
O2594       O  0.68901312  0.11937356  0.44581897    -0.81300
O2595       O  0.68536894  0.06950310  0.04965558    -0.84100
C2596       C  0.75526792  0.09592863  0.47263852     0.96700
C2597       C  0.75587398  0.15944314  0.47210580     1.04100
O2598       O  0.71002893  0.10560720  0.99801462    -1.13000
O2599       O  0.68445837  0.11783431  0.04716066    -0.75500
O2600       O  0.72561240  0.13724909  0.05345195    -0.79000
O2601       O  0.73992800  0.09474929  0.45236628    -0.79700
C2602       C  0.70441928  0.13478904  0.05911933     0.95600
O2603       O  0.72666974  0.09034707  0.05317796    -0.77600
O2604       O  0.66309279  0.10434321  0.48604163    -0.82800
C2605       C  0.66954140  0.05376883  0.46184004     0.98200
C2606       C  0.66948561  0.11565150  0.46012909     1.04100
O2607       O  0.68687619  0.07077353  0.44581243    -0.78500
C2608       C  0.70564117  0.07238079  0.06077797     1.02400
Fe2609     Fe  0.88174605  0.11938486  0.02767872     1.65800
Fe2610     Fe  0.91430551  0.08844917  0.02186425     1.73200
Fe2611     Fe  0.89652311  0.10691754  0.45550917     1.54400
O2612       O  0.85869798  0.09469588  0.45387889    -0.82200
O2613       O  0.94422689  0.10510328  0.49373094    -0.80500
O2614       O  0.84947847  0.10256537  0.00258625    -0.84700
O2615       O  0.89608084  0.15128149  0.00177742    -0.79500
O2616       O  0.88777754  0.07041127  0.45001970    -0.81300
O2617       O  0.93281278  0.11678219  0.05381367    -0.84100
C2618       C  0.90527783  0.15882825  0.47392675     0.96700
C2619       C  0.84355375  0.09521242  0.47335875     1.04100
O2620       O  0.89736595  0.10476349  0.00176712    -1.13000
O2621       O  0.88497937  0.06780141  0.05215735    -0.75500
O2622       O  0.86547487  0.08965041  0.05740652    -0.79000
O2623       O  0.90547431  0.14392454  0.45401189    -0.79700
C2624       C  0.86806252  0.07115783  0.06406254     0.95600
O2625       O  0.91220393  0.13774958  0.05548675    -0.77600
O2626       O  0.89643947  0.05759697  0.49392542    -0.82800
C2627       C  0.94963298  0.11620531  0.46770167     0.98200
C2628       C  0.88846839  0.05369138  0.46633272     1.04100
O2629       O  0.93400374  0.11898308  0.45174408    -0.78500
C2630       C  0.93003376  0.13455801  0.06375648     1.02400
Fe2631     Fe  0.88292502  0.26432468  0.02716783     1.65800
Fe2632     Fe  0.91449754  0.32716514  0.01984379     1.73200
Fe2633     Fe  0.89650592  0.29051271  0.45493467     1.54400
O2634       O  0.90476073  0.26189494  0.45520842    -0.82200
O2635       O  0.89620708  0.34007831  0.49214593    -0.80500
O2636       O  0.90203349  0.24985752  0.00493948    -0.84700
O2637       O  0.85246641  0.24545297  0.99895039    -0.79500
O2638       O  0.93394601  0.31467171  0.44954379    -0.81300
O2639       O  0.88716722  0.31767998  0.05358902    -0.84100
C2640       C  0.84503729  0.24850209  0.47343999     0.96700
C2641       C  0.90740789  0.24905945  0.47624501     1.04100
O2642       O  0.89783642  0.29400408  0.00071406    -1.13000
O2643       O  0.93590339  0.31859078  0.04834417    -0.75500
O2644       O  0.91107534  0.27854433  0.05914447    -0.79000
O2645       O  0.85874683  0.26574722  0.45476365    -0.79700
C2646       C  0.93098427  0.29894150  0.06308721     0.95600
O2647       O  0.86287050  0.27638727  0.05210202    -0.77600
O2648       O  0.94449523  0.34084656  0.48901371    -0.82800
C2649       C  0.88803918  0.33557416  0.46465708     0.98200
C2650       C  0.94972930  0.33383630  0.46382933     1.04100
O2651       O  0.88816736  0.31860852  0.44838094    -0.78500
C2652       C  0.86792692  0.29763654  0.06190907     1.02400
Fe2653     Fe  0.90427183  0.45315800  0.35938794     1.65800
Fe2654     Fe  0.84099354  0.42058450  0.35381322     1.73200
Fe2655     Fe  0.87760410  0.43878590  0.28772157     1.54400
O2656       O  0.90293194  0.47674584  0.28622530    -0.82200
O2657       O  0.82787036  0.38997756  0.32508142    -0.80500
O2658       O  0.92040882  0.48474219  0.33281539    -0.84700
O2659       O  0.92097028  0.43712238  0.33517048    -0.79500
O2660       O  0.84981248  0.44767490  0.28180168    -0.81300
O2661       O  0.85061967  0.40129220  0.38499681    -0.84100
C2662       C  0.92033570  0.42941361  0.30792088     0.96700
C2663       C  0.91808146  0.49163918  0.30600178     1.04100
O2664       O  0.87421465  0.43748063  0.33358934    -1.13000
O2665       O  0.84978497  0.44943342  0.38471547    -0.75500
O2666       O  0.89124117  0.47086278  0.38704169    -0.79000
O2667       O  0.90584595  0.42964958  0.28732167    -0.79700
C2668       C  0.87000571  0.46745273  0.39460811     0.95600
O2669       O  0.89180873  0.42378550  0.38935744    -0.77600
O2670       O  0.82712452  0.43735893  0.32511895    -0.82800
C2671       C  0.83398593  0.38515240  0.29892844     0.98200
C2672       C  0.83196633  0.44632488  0.29789649     1.04100
O2673       O  0.85242032  0.40134995  0.28343528    -0.78500
C2674       C  0.87107299  0.40523245  0.39665968     1.02400
Fe2675     Fe  0.54885266  0.45172754  0.36286554     1.65800
Fe2676     Fe  0.58151245  0.42111649  0.35421900     1.73200
Fe2677     Fe  0.56091245  0.43870821  0.28994434     1.54400
O2678       O  0.52322398  0.42670991  0.29102111    -0.82200
O2679       O  0.61117377  0.43883590  0.32403460    -0.80500
O2680       O  0.51640976  0.43663613  0.33817950    -0.84700
O2681       O  0.56381781  0.48410671  0.33803634    -0.79500
O2682       O  0.55189080  0.40216716  0.28379488    -0.81300
O2683       O  0.60158330  0.44995503  0.38485950    -0.84100
C2684       C  0.57033785  0.49053687  0.31021332     0.96700
C2685       C  0.50897054  0.42759993  0.31151618     1.04100
O2686       O  0.56376294  0.43715569  0.33562625    -1.13000
O2687       O  0.55367563  0.40105789  0.38650468    -0.75500
O2688       O  0.53221494  0.42109454  0.39076053    -0.79000
O2689       O  0.56967130  0.47564362  0.28962376    -0.79700
C2690       C  0.53599654  0.40342752  0.39786999     0.95600
O2691       O  0.57920535  0.46879397  0.39126178    -0.77600
O2692       O  0.56420113  0.39056555  0.32577278    -0.82800
C2693       C  0.61500605  0.44930717  0.29768412     0.98200
C2694       C  0.55436204  0.38603615  0.29917667     1.04100
O2695       O  0.59808668  0.45078342  0.28300781    -0.78500
C2696       C  0.59805999  0.46659311  0.39706973     1.02400
Fe2697     Fe  0.54640135  0.09635032  0.36094853     1.65800
Fe2698     Fe  0.57949324  0.15944806  0.35260022     1.73200
Fe2699     Fe  0.55808242  0.12172892  0.28828346     1.54400
O2700       O  0.56610902  0.09291778  0.28721635    -0.82200
O2701       O  0.56149966  0.17315475  0.32534634    -0.80500
O2702       O  0.56113108  0.07886594  0.33572059    -0.84700
O2703       O  0.51375775  0.07960046  0.33642765    -0.79500
O2704       O  0.59552257  0.14595749  0.28118988    -0.81300
O2705       O  0.55236762  0.15170432  0.38624499    -0.84100
C2706       C  0.50597086  0.08165230  0.31009653     0.96700
C2707       C  0.56699763  0.07865670  0.30768156     1.04100
O2708       O  0.56129585  0.12588014  0.33391651    -1.13000
O2709       O  0.60002200  0.14996469  0.38199164    -0.75500
O2710       O  0.57701184  0.10907311  0.38897843    -0.79000
O2711       O  0.52011223  0.09689628  0.28963261    -0.79700
C2712       C  0.59626665  0.12974566  0.39433701     0.95600
O2713       O  0.53008951  0.11040219  0.38951799    -0.77600
O2714       O  0.60880409  0.17154429  0.32136092    -0.82800
C2715       C  0.55143366  0.16787192  0.29879264     0.98200
C2716       C  0.61258788  0.16451304  0.29523421     1.04100
O2717       O  0.54963878  0.14982632  0.28299271    -0.78500
C2718       C  0.53457540  0.13183937  0.39760610     1.02400
C2719       C  0.59151732  0.05821887  0.31851887    -0.20800
C2720       C  0.57422302  0.06007121  0.29935664    -0.07400
C2721       C  0.56016632  0.04088337  0.27810343     0.13500
C2722       C  0.56175787  0.01902915  0.27903958    -0.20900
C2723       C  0.57643840  0.01591032  0.30136002    -0.07400
C2724       C  0.59271615  0.03624758  0.31993612     0.13500
C2725       C  0.61058894  0.03448748  0.34216164    -0.24200
H2726       H  0.60256922  0.07323302  0.33439019     0.14800
H2727       H  0.54990456  0.50340394  0.26494786     0.14800
C2728       C  0.54170110  0.04233702  0.25672327    -0.24200
H2729       H  0.62270111  0.05255823  0.35370239     0.05000
H2730       H  0.62278993  0.02907442  0.32937409     0.08200
H2731       H  0.60032672  0.02055223  0.36058251     0.08200
H2732       H  0.55156804  0.05864338  0.24104882     0.08200
H2733       H  0.52746748  0.04422100  0.27041759     0.08200
H2734       H  0.53186346  0.02541849  0.24218980     0.05000
C2735       C  0.94001296  0.03561746  0.32496291    -0.20800
C2736       C  0.93547739  0.01901667  0.30051222    -0.07400
C2737       C  0.95145689  0.02727772  0.27437929     0.13500
C2738       C  0.97423493  0.04977585  0.27630208    -0.20900
C2739       C  0.98070501  0.06398861  0.30351241    -0.07400
C2740       C  0.96252813  0.05800199  0.32689189     0.13500
C2741       C  0.96724123  0.07450810  0.35465430    -0.24200
H2742       H  0.92700485  0.02983958  0.34427345     0.14800
H2743       H  0.98785591  0.05503405  0.25778317     0.14800
C2744       C  0.94531477  0.01191608  0.24542727    -0.24200
H2745       H  0.95033619  0.06771529  0.36946860     0.05000
H2746       H  0.97272232  0.09365933  0.34682826     0.08200
H2747       H  0.98218462  0.07499515  0.36924768     0.08200
H2748       H  0.92824419  0.50726244  0.23414607     0.08200
H2749       H  0.94411740  0.49237951  0.25124039     0.08200
H2750       H  0.95998354  0.02115733  0.22738321     0.05000
C2751       C  0.94156711  0.40651112  0.32375605    -0.20800
C2752       C  0.93818813  0.42072999  0.30090066    -0.07400
C2753       C  0.95565041  0.43099715  0.27639021     0.13500
C2754       C  0.97801520  0.43031911  0.27816915    -0.20900
C2755       C  0.98302791  0.41968941  0.30393440    -0.07400
C2756       C  0.96382868  0.40581285  0.32555643     0.13500
C2757       C  0.96706499  0.39098495  0.35111101    -0.24200
H2758       H  0.92764650  0.39775347  0.34187521     0.14800
H2759       H  0.99259837  0.44038413  0.26116221     0.14800
C2760       C  0.95195781  0.44475710  0.25010014    -0.24200
H2761       H  0.94960223  0.38013564  0.36470398     0.05000
H2762       H  0.48113631  0.40252742  0.36707104     0.08200
H2763       H  0.97221483  0.37766409  0.34094851     0.08200
H2764       H  0.95091787  0.46083351  0.25943302     0.08200
H2765       H  0.93444143  0.43217566  0.23774684     0.08200
H2766       H  0.96757153  0.45185483  0.23311797     0.05000
C2767       C  0.89116533  0.37685883  0.46002771    -0.20800
C2768       C  0.87960489  0.35193799  0.45043902    -0.07400
C2769       C  0.86168613  0.34396360  0.42645158     0.13500
C2770       C  0.85776707  0.36163238  0.41078695    -0.20900
C2771       C  0.87140407  0.38694668  0.41832604    -0.07400
C2772       C  0.88737144  0.39448203  0.44426527     0.13500
C2773       C  0.90047869  0.42103787  0.45551855    -0.24200
H2774       H  0.90433032  0.38295049  0.47897954     0.14800
H2775       H  0.84509956  0.35585674  0.39131568     0.14800
C2776       C  0.84659610  0.31701540  0.41716501    -0.24200
H2777       H  0.91043822  0.42300929  0.47760918     0.05000
H2778       H  0.88663693  0.42723602  0.45961136     0.08200
H2779       H  0.91455585  0.43350229  0.43834115     0.08200
H2780       H  0.83712849  0.30537061  0.43784028     0.08200
H2781       H  0.85875951  0.31068221  0.40625978     0.08200
H2782       H  0.83201535  0.31406834  0.40004448     0.05000
C2783       C  0.48858123  0.37350672  0.46161325    -0.20800
C2784       C  0.97480836  0.34974868  0.44987291    -0.07400
C2785       C  0.98433566  0.34224231  0.42455403     0.13500
C2786       C  0.00611999  0.36006893  0.40940269    -0.20900
C2787       C  0.51795166  0.38441028  0.41915930    -0.07400
C2788       C  0.51011049  0.39119743  0.44634500     0.13500
C2789       C  0.52441625  0.41708893  0.45946060    -0.24200
H2790       H  0.48222845  0.37929124  0.48172969     0.14800
H2791       H  0.01262961  0.35490218  0.38885106     0.14800
C2792       C  0.97176220  0.31583770  0.41285116    -0.24200
H2793       H  0.51640234  0.41869434  0.48183590     0.05000
H2794       H  0.52417545  0.43092756  0.44333524     0.08200
H2795       H  0.54390014  0.42163313  0.46369522     0.08200
H2796       H  0.95355567  0.31088363  0.40226837     0.08200
H2797       H  0.96906406  0.30287562  0.43221147     0.08200
H2798       H  0.98310923  0.31326968  0.39473968     0.05000
C2799       C  0.00751475  0.14701738  0.41636068    -0.20800
C2800       C  0.51728773  0.13308370  0.42019728    -0.07400
C2801       C  0.50938034  0.11769050  0.44681340     0.13500
C2802       C  0.48832350  0.11432514  0.46309702    -0.20900
C2803       C  0.97453133  0.12410704  0.45421693    -0.07400
C2804       C  0.98656695  0.14411047  0.43288599     0.13500
C2805       C  0.97749154  0.16235053  0.42726072    -0.24200
H2806       H  0.01597957  0.16142091  0.39878863     0.14800
H2807       H  0.48158332  0.10141115  0.48245924     0.14800
C2808       C  0.52320650  0.10495038  0.45838584    -0.24200
H2809       H  0.99047254  0.17792560  0.41198548     0.05000
H2810       H  0.97604390  0.17040630  0.44961230     0.08200
H2811       H  0.95908716  0.15305184  0.41571712     0.08200
H2812       H  0.54278916  0.11926738  0.46286813     0.08200
H2813       H  0.52257154  0.09132044  0.44128633     0.08200
H2814       H  0.51515390  0.09470693  0.48040053     0.05000
C2815       C  0.88185117  0.49061865  0.44358052    -0.20800
C2816       C  0.86955289  0.48609273  0.41517022    -0.07400
C2817       C  0.86123550  0.50223662  0.40458674     0.13500
C2818       C  0.86509765  0.02265581  0.42523989    -0.20900
C2819       C  0.88030043  0.02902558  0.45173506    -0.07400
C2820       C  0.88916661  0.01287305  0.46148622     0.13500
C2821       C  0.90567779  0.01818811  0.48936599    -0.24200
H2822       H  0.88835955  0.47812613  0.45122971     0.14800
H2823       H  0.85805796  0.03470801  0.41765641     0.14800
C2824       C  0.84866208  0.49838382  0.37360809    -0.24200
H2825       H  0.91133395  0.00386921  0.49266580     0.05000
H2826       H  0.89555490  0.01824239  0.51063606     0.08200
H2827       H  0.92297176  0.03642621  0.48646336     0.08200
H2828       H  0.83113739  0.48018419  0.37342572     0.08200
H2829       H  0.86122935  0.49869307  0.35491163     0.08200
H2830       H  0.84391659  0.51313770  0.36846691     0.05000
C2831       C  0.92995400  0.20336957  0.48570403    -0.20800
C2832       C  0.91343390  0.18481947  0.46555308    -0.07400
C2833       C  0.90057544  0.19072733  0.44314292     0.13500
C2834       C  0.90196652  0.21401915  0.44417880    -0.20900
C2835       C  0.91515268  0.23087731  0.46783118    -0.07400
C2836       C  0.93092749  0.22643283  0.48722765     0.13500
C2837       C  0.94802607  0.24549622  0.51030207    -0.24200
H2838       H  0.94032590  0.19894149  0.50229931     0.14800
H2839       H  0.89020164  0.21771199  0.42903495     0.14800
C2840       C  0.88279925  0.17150322  0.42098665    -0.24200
H2841       H  0.96011971  0.23943682  0.52201618     0.05000
H2842       H  0.93669122  0.24803715  0.02949259     0.08200
H2843       H  0.96028658  0.26334832  0.49817717     0.08200
H2844       H  0.86708204  0.15586961  0.93496161     0.08200
H2845       H  0.89272094  0.16416508  0.40677169     0.08200
H2846       H  0.87420598  0.17921359  0.40507072     0.05000
C2847       C  0.62779941  0.11225795  0.45690730    -0.20800
C2848       C  0.65235736  0.12316851  0.44541825    -0.07400
C2849       C  0.65896387  0.13932650  0.41931329     0.13500
C2850       C  0.64047031  0.14241390  0.40436253    -0.20900
C2851       C  0.61559001  0.12968536  0.41444808    -0.07400
C2852       C  0.60941264  0.11521662  0.44181620     0.13500
C2853       C  0.58363096  0.10331500  0.45578370    -0.24200
H2854       H  0.62252944  0.10043694  0.47729498     0.14800
H2855       H  0.64521825  0.15381903  0.38361678     0.14800
C2856       C  0.68520146  0.15328522  0.40665600    -0.24200
H2857       H  0.58254592  0.09393809  0.47817138     0.05000
H2858       H  0.56977794  0.08906702  0.44008651     0.08200
H2859       H  0.57873749  0.11798231  0.46029319     0.08200
H2860       H  0.69061276  0.14009338  0.39677789     0.08200
H2861       H  0.69828573  0.16439951  0.42533068     0.08200
H2862       H  0.68704663  0.16633754  0.38778639     0.05000
C2863       C  0.62929852  0.01399920  0.46020996    -0.20800
C2864       C  0.65317428  0.02905604  0.44734882    -0.07400
C2865       C  0.65980251  0.02079613  0.42003473     0.13500
C2866       C  0.64184666  0.99898833  0.40539153    -0.20900
C2867       C  0.61730517  0.48546514  0.41730769    -0.07400
C2868       C  0.61118912  0.49220464  0.44587233     0.13500
C2869       C  0.58600829  0.47655672  0.46081707    -0.24200
H2870       H  0.62378303  0.51919291  0.48227215     0.14800
H2871       H  0.64645244  0.99332515  0.38372689     0.14800
C2872       C  0.68545636  0.03478405  0.40565143    -0.24200
H2873       H  0.58475124  0.48400152  0.48373044     0.05000
H2874       H  0.58282383  0.45745323  0.46443614     0.08200
H2875       H  0.57106989  0.47595207  0.44606522     0.08200
H2876       H  0.69977064  0.03775116  0.42317036     0.08200
H2877       H  0.68886345  0.05291592  0.39626064     0.08200
H2878       H  0.68762266  0.02438784  0.38605531     0.05000
C2879       C  0.79120650  0.19042114  0.44092798    -0.20800
C2880       C  0.77357066  0.18557620  0.46434523    -0.07400
C2881       C  0.77741588  0.20468074  0.48528749     0.13500
C2882       C  0.80041773  0.22664477  0.48537254    -0.20900
C2883       C  0.81945783  0.23007479  0.46477773    -0.07400
C2884       C  0.81438487  0.21243184  0.44105537     0.13500
C2885       C  0.83357007  0.21483754  0.41750611    -0.24200
H2886       H  0.78814281  0.17583997  0.42468792     0.14800
H2887       H  0.80415727  0.24039895  0.50316527     0.14800
C2888       C  0.75814734  0.20178559  0.50901494    -0.24200
H2889       H  0.82634961  0.21432075  0.39385132     0.08600
H2890       H  0.83718044  0.19904528  0.42017089     0.08200
H2891       H  0.85160444  0.23226497  0.41958042     0.08200
H2892       H  0.76548874  0.20295317  0.03250714     0.08200
H2893       H  0.74020332  0.18427993  0.50608376     0.08200
H2894       H  0.75426374  0.21741418  0.50665803     0.05000
C2895       C  0.78762344  0.09463114  0.43978275    -0.20800
C2896       C  0.77221918  0.08617643  0.46613657    -0.07400
C2897       C  0.77636041  0.07273199  0.99095597     0.13500
C2898       C  0.79897362  0.07275049  0.99068540    -0.20900
C2899       C  0.81717091  0.08556072  0.46528396    -0.07400
C2900       C  0.81000302  0.09386635  0.43877665     0.13500
C2901       C  0.82620663  0.10282148  0.41024842    -0.24200
H2902       H  0.78329635  0.10371093  0.42128093     0.14800
H2903       H  0.80379150  0.06499263  0.01027051     0.14800
C2904       C  0.75795464  0.05944940  0.01687616    -0.24200
H2905       H  0.81795269  0.10917925  0.39204069     0.05000
H2906       H  0.82836459  0.08736112  0.40065020     0.08200
H2907       H  0.84484559  0.11842763  0.41583441     0.08200
H2908       H  0.73940210  0.04642139  0.00703218     0.08200
H2909       H  0.75634370  0.07288184  0.03225055     0.08200
H2910       H  0.76376931  0.04844027  0.03149750     0.05000
C2911       C  0.97453390  0.31023293  0.07345578    -0.20800
C2912       C  0.94981652  0.29897593  0.08396940    -0.07400
C2913       C  0.94322157  0.28552398  0.11216684     0.13500
C2914       C  0.96102446  0.28179938  0.12758236    -0.20900
C2915       C  0.98513322  0.29075341  0.11532369    -0.07400
C2916       C  0.99230589  0.30622524  0.08855495     0.13500
C2917       C  0.01839193  0.31842724  0.07532731    -0.24200
H2918       H  0.97959768  0.32093942  0.05203902     0.14800
H2919       H  0.95552202  0.27058401  0.14857664     0.14800
C2920       C  0.91749056  0.27501956  0.12612531    -0.24200
H2921       H  0.02091885  0.33152440  0.05618855     0.05000
H2922       H  0.02240433  0.30419579  0.06559858     0.08200
H2923       H  0.03209131  0.32920015  0.09362081     0.08200
H2924       H  0.90344803  0.26004247  0.11134322     0.08200
H2925       H  0.91273123  0.29003632  0.12867907     0.08200
H2926       H  0.91631426  0.26682419  0.14941650     0.05000
C2927       C  0.97415658  0.16390530  0.07661238    -0.20800
C2928       C  0.94886750  0.15330541  0.08457921    -0.07400
C2929       C  0.94193342  0.16283344  0.11010855     0.13500
C2930       C  0.96018440  0.18380577  0.12549080    -0.20900
C2931       C  0.98526706  0.19600317  0.11582389    -0.07400
C2932       C  0.99248793  0.18530164  0.09164588     0.13500
C2933       C  0.51886235  0.19707011  0.07914434    -0.24200
H2934       H  0.97941333  0.15632502  0.05723224     0.14800
H2935       H  0.95442470  0.19142221  0.14431231     0.14800
C2936       C  0.91533708  0.15094347  0.12148670    -0.24200
H2937       H  0.52098744  0.18537145  0.06124383     0.05000
H2938       H  0.53122043  0.19892604  0.09876868     0.08200
H2939       H  0.52499291  0.21554605  0.06844624     0.08200
H2940       H  0.90850440  0.13106349  0.12678461     0.08200
H2941       H  0.90324746  0.15261797  0.10385993     0.08200
H2942       H  0.91365347  0.15987534  0.14295488     0.05000
C2943       C  0.55094031  0.32502618  0.27572430    -0.20800
C2944       C  0.53689187  0.31956848  0.24863451    -0.07400
C2945       C  0.52610446  0.33412312  0.24018588     0.13500
C2946       C  0.53076570  0.35473103  0.25840918    -0.20900
C2947       C  0.54636472  0.36142196  0.28456675    -0.07400
C2948       C  0.55586421  0.34567224  0.29389633     0.13500
C2949       C  0.57228570  0.35085312  0.32184769    -0.24200
H2950       H  0.55910395  0.31361620  0.28188262     0.14800
H2951       H  0.52306944  0.36632761  0.25127819     0.14800
C2952       C  0.01336713  0.33025071  0.20908849    -0.24200
H2953       H  0.57802146  0.33658042  0.32501603     0.05000
H2954       H  0.56203847  0.35067993  0.34311279     0.08200
H2955       H  0.58956825  0.36911844  0.31915254     0.08200
H2956       H  0.99642495  0.31157814  0.20973157     0.08200
H2957       H  0.02540933  0.33119119  0.18935861     0.08200
H2958       H  0.00738907  0.34423406  0.20494836     0.05000
C2959       C  0.52203803  0.19460836  0.24428296    -0.20800
C2960       C  0.53586032  0.21989739  0.25179227    -0.07400
C2961       C  0.55098583  0.22711626  0.27853723     0.13500
C2962       C  0.55431666  0.20929274  0.29466972    -0.20900
C2963       C  0.54294825  0.18441846  0.28482041    -0.07400
C2964       C  0.52530285  0.17670887  0.26044041     0.13500
C2965       C  0.50985276  0.14981606  0.25104173    -0.24200
H2966       H  0.50978180  0.18899743  0.22440945     0.14800
H2967       H  0.56702023  0.21522381  0.31409553     0.14800
C2968       C  0.06573967  0.25415549  0.28920995    -0.24200
H2969       H  0.52176747  0.14322490  0.24003690     0.05000
H2970       H  0.50019981  0.13818131  0.27165577     0.08200
H2971       H  0.49536510  0.14715791  0.23392255     0.08200
H2972       H  0.05211870  0.26074817  0.29251238     0.08200
H2973       H  0.57830816  0.26622919  0.27388020     0.08200
H2974       H  0.07516000  0.25598438  0.31169662     0.05000
C2975       C  0.72454534  0.04259964  0.12391878    -0.20800
C2976       C  0.71237892  0.01755791  0.11447152    -0.07400
C2977       C  0.69446877  0.01017779  0.09038962     0.13500
C2978       C  0.69126580  0.02835875  0.07469185    -0.20900
C2979       C  0.70540370  0.05361828  0.08229468    -0.07400
C2980       C  0.72135153  0.06065223  0.10820877     0.13500
C2981       C  0.73505251  0.08717542  0.11956415    -0.24200
H2982       H  0.73763151  0.04848792  0.14293001     0.14800
H2983       H  0.67865916  0.02298095  0.05518319     0.14800
C2984       C  0.67866128  0.98339333  0.08079360    -0.24200
H2985       H  0.74494536  0.08884519  0.14162575     0.05000
H2986       H  0.72160045  0.09385692  0.12374706     0.08200
H2987       H  0.74925950  0.09944002  0.10238261     0.08200
H2988       H  0.66809337  0.47202004  0.10327520     0.08200
H2989       H  0.69043771  0.97654018  0.07000201     0.08200
H2990       H  0.66443615  0.98109018  0.06345623     0.05000
C2991       C  0.82036349  0.04100830  0.12825510    -0.20800
C2992       C  0.80656297  0.01652649  0.11727014    -0.07400
C2993       C  0.81575335  0.00930277  0.09144578     0.13500
C2994       C  0.83723717  0.02728739  0.07591664    -0.20900
C2995       C  0.84946045  0.05224000  0.08521741    -0.07400
C2996       C  0.84155222  0.05896900  0.11249393     0.13500
C2997       C  0.85547470  0.08498187  0.12531866    -0.24200
H2998       H  0.81382117  0.04655798  0.14842336     0.14800
H2999       H  0.84362550  0.02214085  0.05525445     0.14800
C3000       C  0.80314680  0.98285562  0.07993444    -0.24200
H3001       H  0.84752335  0.08648595  0.14780326     0.05000
H3002       H  0.85462889  0.09847374  0.10913847     0.08200
H3003       H  0.87516274  0.09007009  0.12925488     0.08200
H3004       H  0.78466562  0.97765432  0.07003242     0.08200
H3005       H  0.80203131  0.47057559  0.10041214     0.08200
H3006       H  0.81420639  0.98034823  0.06137576     0.05000
C3007       C  0.66960615  0.47864514  0.24059485    -0.20800
C3008       C  0.68313285  0.46725773  0.25041803    -0.07400
C3009       C  0.67665934  0.45379207  0.27856352     0.13500
C3010       C  0.65522106  0.44976619  0.29443087    -0.20900
C3011       C  0.63983715  0.45864220  0.28283413    -0.07400
C3012       C  0.64793257  0.47450440  0.25636468     0.13500
C3013       C  0.63391582  0.48688085  0.24408618    -0.24200
H3014       H  0.67501803  0.48939333  0.21926959     0.14800
H3015       H  0.64982252  0.43839525  0.31522593     0.14800
C3016       C  0.69225596  0.44356399  0.29203112    -0.24200
H3017       H  0.64431760  0.50022096  0.22509220     0.05000
H3018       H  0.63102759  0.49742660  0.26289229     0.08200
H3019       H  0.61571054  0.47278377  0.23447403     0.08200
H3020       H  0.71240484  0.96093995  0.29492131     0.08200
H3021       H  0.69172599  0.42879759  0.27702477     0.08200
H3022       H  0.68544171  0.43519122  0.31530472     0.05000
C3023       C  0.80460700  0.47640178  0.24570366    -0.20800
C3024       C  0.77908564  0.46068584  0.25142622    -0.07400
C3025       C  0.77147475  0.44270701  0.27540995     0.13500
C3026       C  0.78945133  0.43962367  0.29128765    -0.20900
C3027       C  0.81483827  0.45372553  0.28364980    -0.07400
C3028       C  0.82264808  0.47308590  0.26141394     0.13500
C3029       C  0.84982624  0.49035944  0.25418629    -0.24200
H3030       H  0.81040260  0.49041620  0.22763458     0.14800
H3031       H  0.78343254  0.42513700  0.30877370     0.14800
C3032       C  0.74447367  0.42673993  0.28464007    -0.24200
H3033       H  0.85244972  0.50553964  0.23814693     0.05000
H3034       H  0.85808882  0.48004427  0.24285064     0.08200
H3035       H  0.86003348  0.49903013  0.27587072     0.08200
H3036       H  0.73366236  0.41384688  0.26572655     0.08200
H3037       H  0.73818132  0.94239502  0.29198225     0.08200
H3038       H  0.74324108  0.91839218  0.30745840     0.05000
C3039       C  0.62220837  0.35561476  0.10933819    -0.20800
C3040       C  0.60415902  0.35123937  0.13192001    -0.07400
C3041       C  0.60733200  0.37060298  0.15184961     0.13500
C3042       C  0.63014113  0.39283833  0.15164218    -0.20900
C3043       C  0.64982626  0.39570322  0.13247694    -0.07400
C3044       C  0.64539483  0.37752760  0.10975839     0.13500
C3045       C  0.66572363  0.37976210  0.08828931    -0.24200
H3046       H  0.61931757  0.34070757  0.09378791     0.14800
H3047       H  0.63340234  0.40710307  0.16848468     0.14800
C3048       C  0.58716181  0.36729724  0.17437840    -0.24200
H3049       H  0.65906603  0.36343076  0.07274299     0.05000
H3050       H  0.68149274  0.38099668  0.10195151     0.08200
H3051       H  0.67237505  0.39661820  0.07356002     0.08200
H3052       H  0.58340466  0.35232956  0.19131269     0.08200
H3053       H  0.56978928  0.36237751  0.16154102     0.08200
H3054       H  0.59251877  0.38459127  0.18760857     0.05000
C3055       C  0.84532483  0.28485785  0.11142584    -0.20800
C3056       C  0.85027240  0.29854022  0.08393477    -0.07400
C3057       C  0.83581933  0.30953865  0.07602408     0.13500
C3058       C  0.81543551  0.30503216  0.09485536    -0.20900
C3059       C  0.80907636  0.28961728  0.12128209    -0.07400
C3060       C  0.82503800  0.28032849  0.13042001     0.13500
C3061       C  0.82032901  0.26448110  0.15898590    -0.24200
H3062       H  0.85679443  0.27668988  0.11727137     0.14800
H3063       H  0.80370467  0.31265138  0.08801780     0.14800
C3064       C  0.84090289  0.32465546  0.04674354    -0.24200
H3065       H  0.83469556  0.25882971  0.16196225     0.05000
H3066       H  0.80197300  0.24721129  0.15730933     0.08200
H3067       H  0.82085615  0.27512888  0.17990742     0.08200
H3068       H  0.83946063  0.31312494  0.02633628     0.08200
H3069       H  0.85993014  0.34109324  0.04753523     0.08200
H3070       H  0.82743069  0.33144539  0.04369324     0.05000
C3071       C  0.71568347  0.15686864  0.10887770    -0.20800
C3072       C  0.70382995  0.15314399  0.08025088    -0.07400
C3073       C  0.69572856  0.16966103  0.07039934     0.13500
C3074       C  0.70101346  0.19042304  0.08871426    -0.20900
C3075       C  0.71442476  0.19529201  0.11665618    -0.07400
C3076       C  0.72096752  0.17750678  0.12738809     0.13500
C3077       C  0.73418631  0.18011392  0.15763871    -0.24200
H3078       H  0.72178464  0.14396854  0.11618255     0.14800
H3079       H  0.69540895  0.20342908  0.08037514     0.14800
C3080       C  0.68280314  0.16623042  0.03976920    -0.24200
H3081       H  0.73703490  0.16402068  0.16220415     0.05000
H3082       H  0.72288583  0.18105195  0.17710978     0.08200
H3083       H  0.75289520  0.19702970  0.15713419     0.08200
H3084       H  0.66509946  0.14818633  0.03971640     0.08200
H3085       H  0.69496115  0.16642932  0.02063417     0.08200
H3086       H  0.67828417  0.18122483  0.03523002     0.05000
C3087       C  0.79354696  0.34552879  0.29715801    -0.20800
C3088       C  0.81789525  0.36001951  0.28527217    -0.07400
C3089       C  0.82525460  0.35081605  0.25947799     0.13500
C3090       C  0.80759626  0.32870100  0.24512573    -0.20900
C3091       C  0.78277269  0.31590617  0.25524653    -0.07400
C3092       C  0.77587833  0.32380073  0.28231213     0.13500
C3093       C  0.74984179  0.30941975  0.29551376    -0.24200
H3094       H  0.78775246  0.35188337  0.31726774     0.14800
H3095       H  0.81274655  0.32237405  0.22440953     0.14800
C3096       C  0.85132517  0.36420980  0.24619705    -0.24200
H3097       H  0.74798544  0.31759879  0.31755350     0.05000
H3098       H  0.74526720  0.28998052  0.30031739     0.08200
H3099       H  0.73610176  0.30940571  0.27905441     0.08200
H3100       H  0.86506836  0.36758684  0.26469360     0.08200
H3101       H  0.85518524  0.38209885  0.23548541     0.08200
H3102       H  0.85393907  0.35317939  0.22778972     0.05000
C3103       C  0.65595343  0.20057884  0.29580398    -0.20800
C3104       C  0.63768980  0.17936391  0.28023813    -0.07400
C3105       C  0.64358882  0.17406554  0.25024548     0.13500
C3106       C  0.66609598  0.19130247  0.23587117    -0.20900
C3107       C  0.68278671  0.21357362  0.25039005    -0.07400
C3108       C  0.67831033  0.21772152  0.28120710     0.13500
C3109       C  0.69707816  0.24033653  0.29860872    -0.24200
H3110       H  0.65238630  0.20446733  0.31915182     0.14800
H3111       H  0.66994397  0.18816447  0.21226838     0.14800
C3112       C  0.62632030  0.15089226  0.23248706    -0.24200
H3113       H  0.69111377  0.24027675  0.32292403     0.05000
H3114       H  0.69954889  0.25750403  0.28723666     0.08200
H3115       H  0.71524352  0.24071209  0.29904769     0.08200
H3116       H  0.60886007  0.15094901  0.22669526     0.08200
H3117       H  0.62210354  0.13411938  0.24638839     0.08200
H3118       H  0.63476416  0.14963285  0.21027883     0.05000
C3119       C  0.73503498  0.37803065  0.11305275    -0.20800
C3120       C  0.74567827  0.39504428  0.13734995    -0.07400
C3121       C  0.75957780  0.39089324  0.16018330     0.13500
C3122       C  0.75950993  0.36822454  0.16067129    -0.20900
C3123       C  0.74615650  0.34979721  0.13865603    -0.07400
C3124       C  0.73519741  0.35535910  0.11338382     0.13500
C3125       C  0.72190379  0.33664939  0.08822676    -0.24200
H3126       H  0.72464079  0.38142106  0.09538210     0.14800
H3127       H  0.76841117  0.36413422  0.17961801     0.14800
C3128       C  0.77357550  0.40989275  0.18490385    -0.24200
H3129       H  0.71375466  0.34371831  0.07075440     0.05000
H3130       H  0.70658711  0.31932369  0.09842464     0.08200
H3131       H  0.73523612  0.33237402  0.07616472     0.08200
H3132       H  0.76041105  0.41220382  0.20012224     0.08200
H3133       H  0.78670521  0.42802586  0.17394011     0.08200
H3134       H  0.78454649  0.40421278  0.19977990     0.05000
C3135       C  0.65029433  0.27174895  0.11516562    -0.20800
C3136       C  0.65269139  0.25594663  0.13649209    -0.07400
C3137       C  0.63162732  0.23863080  0.15361763     0.13500
C3138       C  0.60954946  0.23973810  0.15187581    -0.20900
C3139       C  0.60828677  0.25793908  0.13379645    -0.07400
C3140       C  0.62843724  0.27335576  0.11405952     0.13500
C3141       C  0.62799584  0.29328812  0.09441120    -0.24200
H3142       H  0.66641234  0.28475988  0.10179187     0.14800
H3143       H  0.59388166  0.22773210  0.16665234     0.14800
C3144       C  0.63263749  0.21956630  0.17449006    -0.24200
H3145       H  0.64563188  0.30417880  0.08114001     0.05000
H3146       H  0.62545127  0.30639379  0.10944715     0.08200
H3147       H  0.61244851  0.28467972  0.07762875     0.08200
H3148       H  0.64579784  0.22873281  0.19381335     0.08200
H3149       H  0.63871983  0.20827537  0.16091561     0.08200
H3150       H  0.61410247  0.20671862  0.18482827     0.05000
Fe3151     Fe  0.71639360  0.28417721  0.69753578     1.65800
Fe3152     Fe  0.74894072  0.25340163  0.68926862     1.73200
Fe3153     Fe  0.73093180  0.27326931  0.62484806     1.54400
O3154       O  0.69396413  0.26483257  0.62423492    -0.82200
O3155       O  0.78054750  0.27330070  0.66275267    -0.80500
O3156       O  0.68387771  0.26781739  0.67301934    -0.84700
O3157       O  0.73006439  0.31649641  0.67203986    -0.79500
O3158       O  0.71888339  0.23596571  0.61807024    -0.81300
O3159       O  0.76656747  0.28019299  0.72347767    -0.84100
C3160       C  0.73980271  0.32447783  0.64557892     0.96700
C3161       C  0.67830077  0.26279848  0.64477327     1.04100
O3162       O  0.73212206  0.27030317  0.67048965    -1.13000
O3163       O  0.71876490  0.23107530  0.71752893    -0.75500
O3164       O  0.70050189  0.25373985  0.72663557    -0.79000
O3165       O  0.74278957  0.31100379  0.62584338    -0.79700
C3166       C  0.70223725  0.23437862  0.73067164     0.95600
O3167       O  0.74704110  0.30223526  0.72500181    -0.77600
O3168       O  0.73428514  0.22476116  0.65734193    -0.82800
C3169       C  0.78452665  0.28172324  0.63530152     0.98200
C3170       C  0.72293338  0.22009182  0.63166456     1.04100
O3171       O  0.76765964  0.28216128  0.61901407    -0.78500
C3172       C  0.76426435  0.29822031  0.73360996     1.02400
Fe3173     Fe  0.71331997  0.43018031  0.69409209     1.65800
Fe3174     Fe  0.74678822  0.99287436  0.68655738     1.73200
Fe3175     Fe  0.72858899  0.45573194  0.62193090     1.54400
O3176       O  0.74152306  0.43047635  0.62348234    -0.82200
O3177       O  0.73261041  0.00744427  0.65435019    -0.80500
O3178       O  0.72550298  0.41058915  0.66806342    -0.84700
O3179       O  0.68055712  0.41607507  0.67039589    -0.79500
O3180       O  0.76489961  0.48359975  0.61528197    -0.81300
O3181       O  0.71809945  0.48633507  0.71560307    -0.84100
C3182       C  0.67561102  0.41465880  0.64183269     0.96700
C3183       C  0.73741350  0.41348206  0.64303683     1.04100
O3184       O  0.72985234  0.45974268  0.66745046    -1.13000
O3185       O  0.76352147  0.98241918  0.72085596    -0.75500
O3186       O  0.74414877  0.44123816  0.72072477    -0.79000
O3187       O  0.69187877  0.42717760  0.62139098    -0.79700
C3188       C  0.76171531  0.46193767  0.72970141     0.95600
O3189       O  0.69915202  0.44554604  0.72399403    -0.77600
O3190       O  0.77826705  0.00364296  0.66016209    -0.82800
C3191       C  0.71977071  0.00028274  0.62965592     0.98200
C3192       C  0.78133076  0.00017134  0.63194043     1.04100
O3193       O  0.71586775  0.48072090  0.61598110    -0.78500
C3194       C  0.70179857  0.46679046  0.72919105     1.02400
Fe3195     Fe  0.57194789  0.28690570  0.69279128     1.65800
Fe3196     Fe  0.00845329  0.25554964  0.68597465     1.73200
Fe3197     Fe  0.54624318  0.27377158  0.62051948     1.54400
O3198       O  0.57113380  0.31154743  0.62018694    -0.82200
O3199       O  0.99510181  0.22610676  0.65540167    -0.80500
O3200       O  0.58917405  0.31870982  0.66651481    -0.84700
O3201       O  0.58875046  0.27076886  0.66878127    -0.79500
O3202       O  0.51831255  0.28226754  0.61399716    -0.81300
O3203       O  0.51720311  0.23512128  0.71659833    -0.84100
C3204       C  0.58928563  0.26495101  0.64085072     0.96700
C3205       C  0.58670859  0.32589500  0.63993858     1.04100
O3206       O  0.54230365  0.27202114  0.66629167    -1.13000
O3207       O  0.51756176  0.28370758  0.71748798    -0.75500
O3208       O  0.55897885  0.30488030  0.72010610    -0.79000
O3209       O  0.57515848  0.26577082  0.62020662    -0.79700
C3210       C  0.53775088  0.30155274  0.72758851     0.95600
O3211       O  0.55829675  0.25717669  0.72256426    -0.77600
O3212       O  0.99647630  0.27448381  0.65814240    -0.82800
C3213       C  0.00196186  0.22083458  0.63005738     0.98200
C3214       C  0.00107385  0.28236812  0.63044130     1.04100
O3215       O  0.52145226  0.23631165  0.61539276    -0.78500
C3216       C  0.53725192  0.23874288  0.72924474     1.02400
Fe3217     Fe  0.73991020  0.12051670  0.52432093     1.65800
Fe3218     Fe  0.67684682  0.08860447  0.51690165     1.73200
Fe3219     Fe  0.71433215  0.10745835  0.95226648     1.54400
O3220       O  0.74223610  0.14456366  0.95175480    -0.82200
O3221       O  0.66417531  0.05784050  0.98888826    -0.80500
O3222       O  0.75599361  0.15295231  0.49983608    -0.84700
O3223       O  0.75754959  0.10603082  0.49876778    -0.79500
O3224       O  0.68884719  0.11943121  0.94610498    -0.81300
O3225       O  0.68602048  0.06998153  0.55007438    -0.84100
C3226       C  0.75497369  0.09594549  0.97374702     0.96700
C3227       C  0.75587043  0.15963089  0.97245392     1.04100
O3228       O  0.71032779  0.10543372  0.49763552    -1.13000
O3229       O  0.68501220  0.11825988  0.54631553    -0.75500
O3230       O  0.72602914  0.13678678  0.55346520    -0.79000
O3231       O  0.73998303  0.09507219  0.95314334    -0.79700
C3232       C  0.70498798  0.13488118  0.55865768     0.95600
O3233       O  0.72738371  0.08998597  0.55220329    -0.77600
O3234       O  0.66308146  0.10506253  0.98655989    -0.82800
C3235       C  0.66934486  0.05405980  0.96162759     0.98200
C3236       C  0.66955136  0.11623753  0.96056047     1.04100
O3237       O  0.68702932  0.07095924  0.94593391    -0.78500
C3238       C  0.70632740  0.07246466  0.56053060     1.02400
Fe3239     Fe  0.88160195  0.12018365  0.52670493     1.65800
Fe3240     Fe  0.91336328  0.08837758  0.52228651     1.73200
Fe3241     Fe  0.89599247  0.10653815  0.95589763     1.54400
O3242       O  0.85832513  0.09508822  0.95510977    -0.82200
O3243       O  0.94534423  0.10685278  0.99380714    -0.80500
O3244       O  0.85001805  0.10438689  0.50023072    -0.84700
O3245       O  0.89749081  0.15234943  0.50135433    -0.79500
O3246       O  0.88640028  0.06987182  0.95022988    -0.81300
O3247       O  0.93273984  0.11741274  0.55298657    -0.84100
C3248       C  0.90455184  0.15818146  0.97466143     0.96700
C3249       C  0.84306126  0.09451141  0.97525208     1.04100
O3250       O  0.89717724  0.10512995  0.50145965    -1.13000
O3251       O  0.88424195  0.06908649  0.55326534    -0.75500
O3252       O  0.86378867  0.09016461  0.55569069    -0.79000
O3253       O  0.90570385  0.14371779  0.95485662    -0.79700
C3254       C  0.86670843  0.07212388  0.56367828     0.95600
O3255       O  0.91134944  0.13757122  0.55596281    -0.77600
O3256       O  0.89852128  0.05828116  0.99236702    -0.82800
C3257       C  0.94980744  0.11691112  0.96713697     0.98200
C3258       C  0.88886805  0.05376182  0.96562631     1.04100
O3259       O  0.93323049  0.11790466  0.95102018    -0.78500
C3260       C  0.92958141  0.13479165  0.56355610     1.02400
Fe3261     Fe  0.88331832  0.26459148  0.52717920     1.65800
Fe3262     Fe  0.91489501  0.32757353  0.51957722     1.73200
Fe3263     Fe  0.89646647  0.29037715  0.95521013     1.54400
O3264       O  0.90355334  0.26092326  0.95555394    -0.82200
O3265       O  0.89520137  0.33939582  0.99310463    -0.80500
O3266       O  0.90164652  0.24951029  0.50429166    -0.84700
O3267       O  0.85235262  0.24586925  0.49982882    -0.79500
O3268       O  0.93411861  0.31364136  0.95050387    -0.81300
O3269       O  0.88721860  0.31847125  0.55258817    -0.84100
C3270       C  0.84497288  0.24872428  0.97299711     0.96700
C3271       C  0.90696821  0.24869774  0.97675089     1.04100
O3272       O  0.89814884  0.29426413  0.50053651    -1.13000
O3273       O  0.93585798  0.31911834  0.54906363    -0.75500
O3274       O  0.91198389  0.27866052  0.55824958    -0.79000
O3275       O  0.85851134  0.26651196  0.95486658    -0.79700
C3276       C  0.93135976  0.29930969  0.56307641     0.95600
O3277       O  0.86393683  0.27704839  0.55295801    -0.77600
O3278       O  0.94376073  0.34088093  0.98859436    -0.82800
C3279       C  0.88825993  0.33567740  0.96508079     0.98200
C3280       C  0.94946577  0.33342039  0.96410196     1.04100
O3281       O  0.88937660  0.31935460  0.94848933    -0.78500
C3282       C  0.86846664  0.29838697  0.56177760     1.02400
Fe3283     Fe  0.90451109  0.45351310  0.86008433     1.65800
Fe3284     Fe  0.84123743  0.42087484  0.85433781     1.73200
Fe3285     Fe  0.87792129  0.43902431  0.78834071     1.54400
O3286       O  0.90332431  0.47698908  0.78684366    -0.82200
O3287       O  0.82813542  0.39020991  0.82560155    -0.80500
O3288       O  0.92056988  0.48512114  0.83357192    -0.84700
O3289       O  0.92130377  0.43757796  0.83583316    -0.79500
O3290       O  0.85025915  0.44797154  0.78232127    -0.81300
O3291       O  0.85091857  0.40161455  0.88558742    -0.84100
C3292       C  0.92055492  0.42970739  0.80864421     0.96700
C3293       C  0.91834736  0.49195157  0.80667520     1.04100
O3294       O  0.87448202  0.43776973  0.83420963    -1.13000
O3295       O  0.84995715  0.44974168  0.88526952    -0.75500
O3296       O  0.89139516  0.47111786  0.88779661    -0.79000
O3297       O  0.90601208  0.42980959  0.78806443    -0.79700
C3298       C  0.87015324  0.46772457  0.89530613     0.95600
O3299       O  0.89211748  0.42412384  0.89001755    -0.77600
O3300       O  0.82742213  0.43768587  0.82549152    -0.82800
C3301       C  0.83425257  0.38537696  0.79944298     0.98200
C3302       C  0.83239763  0.44669192  0.79827074     1.04100
O3303       O  0.85269186  0.40157753  0.78395441    -0.78500
C3304       C  0.87138030  0.40554667  0.89725700     1.02400
Fe3305     Fe  0.54945369  0.45229893  0.86261799     1.65800
Fe3306     Fe  0.58191975  0.42147544  0.85395188     1.73200
Fe3307     Fe  0.56145756  0.43921148  0.78973157     1.54400
O3308       O  0.52363778  0.42670644  0.79088418    -0.82200
O3309       O  0.61145605  0.43894214  0.82355346    -0.80500
O3310       O  0.51706050  0.43740653  0.83772095    -0.84700
O3311       O  0.56466351  0.48477812  0.83793402    -0.79500
O3312       O  0.55295877  0.40284699  0.78344526    -0.81300
O3313       O  0.60218124  0.45039095  0.88428990    -0.84100
C3314       C  0.57068280  0.49101209  0.80995181     0.96700
C3315       C  0.50947933  0.42794306  0.81125505     1.04100
O3316       O  0.56428283  0.43763759  0.83539215    -1.13000
O3317       O  0.55420803  0.40166847  0.88645441    -0.75500
O3318       O  0.53260388  0.42158618  0.89030880    -0.79000
O3319       O  0.56966565  0.47596979  0.78935961    -0.79700
C3320       C  0.53644925  0.40399819  0.89761776     0.95600
O3321       O  0.57973182  0.46911765  0.89127535    -0.77600
O3322       O  0.56437850  0.39081236  0.82578878    -0.82800
C3323       C  0.61551693  0.44986453  0.79748166     0.98200
C3324       C  0.55498074  0.38650986  0.79896227     1.04100
O3325       O  0.59877397  0.45178674  0.78297219    -0.78500
C3326       C  0.59865431  0.46693485  0.89674238     1.02400
Fe3327     Fe  0.54739892  0.09669451  0.86090605     1.65800
Fe3328     Fe  0.57960531  0.15978014  0.85266748     1.73200
Fe3329     Fe  0.55855965  0.12206958  0.78840040     1.54400
O3330       O  0.56590039  0.09271228  0.78731945    -0.82200
O3331       O  0.56091405  0.17293358  0.82600059    -0.80500
O3332       O  0.56317927  0.08001700  0.83618171    -0.84700
O3333       O  0.51496946  0.07921942  0.83586601    -0.79500
O3334       O  0.59609530  0.14587229  0.78156367    -0.81300
O3335       O  0.55254765  0.15137966  0.88682776    -0.84100
C3336       C  0.50678520  0.08187637  0.81009944     0.96700
C3337       C  0.56786671  0.07909231  0.80785487     1.04100
O3338       O  0.56183886  0.12623240  0.83397042    -1.13000
O3339       O  0.60077073  0.15086478  0.88152130    -0.75500
O3340       O  0.57771510  0.11011068  0.88968367    -0.79000
O3341       O  0.52053602  0.09778826  0.78999637    -0.79700
C3342       C  0.59700545  0.13089053  0.89454380     0.95600
O3343       O  0.53015244  0.11004490  0.88873975    -0.77600
O3344       O  0.60872767  0.17242650  0.82081662    -0.82800
C3345       C  0.55167104  0.16813668  0.79901568     0.98200
C3346       C  0.61281786  0.16501441  0.79509845     1.04100
O3347       O  0.55066414  0.15059836  0.78281443    -0.78500
C3348       C  0.53455402  0.13128487  0.89750785     1.02400
C3349       C  0.59234186  0.05842829  0.81793679    -0.20800
C3350       C  0.57474098  0.06025763  0.79932214    -0.07400
C3351       C  0.56004007  0.04079871  0.77867015     0.13500
C3352       C  0.56148618  0.01886280  0.77957288    -0.20900
C3353       C  0.57659197  0.01586726  0.80135578    -0.07400
C3354       C  0.59332357  0.03633219  0.81941074     0.13500
C3355       C  0.61145760  0.03456806  0.84116547    -0.24200
H3356       H  0.60383385  0.07358798  0.83340804     0.14800
H3357       H  0.54984568  0.50333431  0.76459629     0.14800
C3358       C  0.54103931  0.04204065  0.75807494    -0.24200
H3359       H  0.62381864  0.05267464  0.85248348     0.05000
H3360       H  0.62338544  0.02898518  0.82804668     0.08200
H3361       H  0.60139010  0.02072489  0.85975266     0.08200
H3362       H  0.55051830  0.05809588  0.74195291     0.08200
H3363       H  0.52723627  0.04420159  0.77235295     0.08200
H3364       H  0.53072570  0.02491436  0.74400882     0.05000
C3365       C  0.93830281  0.03540817  0.82308234    -0.20800
C3366       C  0.93479006  0.01878331  0.79902762    -0.07400
C3367       C  0.95127781  0.02724783  0.77342368     0.13500
C3368       C  0.97360945  0.05012582  0.77565642    -0.20900
C3369       C  0.97920044  0.06448426  0.80270548    -0.07400
C3370       C  0.96035790  0.05823546  0.82527747     0.13500
C3371       C  0.96378913  0.07499019  0.85238888    -0.24200
H3372       H  0.92485215  0.02940094  0.84192224     0.14800
H3373       H  0.98766851  0.05551769  0.75766419     0.14800
C3374       C  0.94623823  0.01162502  0.74487950    -0.24200
H3375       H  0.94639256  0.06793108  0.86630186     0.05000
H3376       H  0.96892977  0.09387640  0.84382402     0.08200
H3377       H  0.97848067  0.07622954  0.86812932     0.08200
H3378       H  0.92880743  0.50760285  0.73473702     0.08200
H3379       H  0.94445843  0.49260471  0.75209018     0.08200
H3380       H  0.96121980  0.02101869  0.72723545     0.05000
C3381       C  0.94160279  0.40665368  0.82438232    -0.20800
C3382       C  0.93829811  0.42095014  0.80158849    -0.07400
C3383       C  0.95568919  0.43115719  0.77700330     0.13500
C3384       C  0.97792274  0.43025512  0.77858327    -0.20900
C3385       C  0.98291236  0.41958312  0.80430043    -0.07400
C3386       C  0.96378947  0.40582862  0.82605805     0.13500
C3387       C  0.96707342  0.39108577  0.85168551    -0.24200
H3388       H  0.92772514  0.39798046  0.84256787     0.14800
H3389       H  0.99248755  0.44027800  0.76153904     0.14800
C3390       C  0.95215221  0.44520772  0.75094433    -0.24200
H3391       H  0.94965547  0.38033609  0.86539380     0.05000
H3392       H  0.48199048  0.40308819  0.86696701     0.08200
H3393       H  0.97214156  0.37768637  0.84158822     0.08200
H3394       H  0.95136641  0.46133796  0.76055710     0.08200
H3395       H  0.93456421  0.43286460  0.73858214     0.08200
H3396       H  0.96772756  0.45226427  0.73390831     0.05000
C3397       C  0.89122527  0.37693178  0.96068909    -0.20800
C3398       C  0.88001530  0.35213070  0.95069270    -0.07400
C3399       C  0.86253327  0.34429481  0.92621699     0.13500
C3400       C  0.85853266  0.36196245  0.91069882    -0.20900
C3401       C  0.87173718  0.38718030  0.91876907    -0.07400
C3402       C  0.88741644  0.39458889  0.94498989     0.13500
C3403       C  0.90017457  0.42103725  0.95660443    -0.24200
H3404       H  0.90410228  0.38289468  0.97994560     0.14800
H3405       H  0.84616496  0.35629533  0.89093323     0.14800
C3406       C  0.84799313  0.31747231  0.91624751    -0.24200
H3407       H  0.91002852  0.42293362  0.97876319     0.05000
H3408       H  0.88613085  0.42697278  0.96069169     0.08200
H3409       H  0.91427700  0.43375268  0.93961892     0.08200
H3410       H  0.83824933  0.30544276  0.93654708     0.08200
H3411       H  0.86060175  0.31158998  0.90558652     0.08200
H3412       H  0.83368802  0.31455665  0.89872378     0.05000
C3413       C  0.48884805  0.37420844  0.96113639    -0.20800
C3414       C  0.97453992  0.34945415  0.95011692    -0.07400
C3415       C  0.98411716  0.34208648  0.92469054     0.13500
C3416       C  0.00585777  0.36001869  0.90955858    -0.20900
C3417       C  0.51839611  0.38502988  0.91891822    -0.07400
C3418       C  0.51041020  0.39189066  0.94592624     0.13500
C3419       C  0.52454791  0.41786310  0.95886142    -0.24200
H3420       H  0.48229877  0.38002838  0.98103365     0.14800
H3421       H  0.01241103  0.35494698  0.88896546     0.14800
C3422       C  0.97161232  0.31575147  0.91274649    -0.24200
H3423       H  0.51646456  0.41949085  0.98116847     0.05000
H3424       H  0.52417867  0.43155225  0.94259070     0.08200
H3425       H  0.54408951  0.42262337  0.96316573     0.08200
H3426       H  0.95334592  0.31078250  0.90232761     0.08200
H3427       H  0.96905760  0.30269961  0.93193441     0.08200
H3428       H  0.98292781  0.31334482  0.89444182     0.05000
C3429       C  0.00581616  0.14733416  0.91263672    -0.20800
C3430       C  0.51694032  0.13196640  0.92011735    -0.07400
C3431       C  0.50768532  0.11504829  0.94530058     0.13500
C3432       C  0.48676429  0.11199487  0.96161285    -0.20900
C3433       C  0.97489054  0.12603356  0.95332323    -0.07400
C3434       C  0.98455762  0.14382661  0.92891605     0.13500
C3435       C  0.97266128  0.15905196  0.91961919    -0.24200
H3436       H  0.01227844  0.15955786  0.89259084     0.14800
H3437       H  0.47906979  0.09808664  0.97985605     0.14800
C3438       C  0.51963262  0.09999054  0.95511942    -0.24200
H3439       H  0.98425976  0.17365292  0.90239603     0.05000
H3440       H  0.97043709  0.16847588  0.94025994     0.08200
H3441       H  0.95427012  0.14707206  0.90880128     0.08200
H3442       H  0.53963570  0.11272927  0.95972225     0.08200
H3443       H  0.51752617  0.08643672  0.93699429     0.08200
H3444       H  0.51106435  0.08921529  0.97666794     0.05000
C3445       C  0.88274855  0.49130189  0.94398640    -0.20800
C3446       C  0.86970003  0.48630038  0.91607045    -0.07400
C3447       C  0.86058884  0.50195822  0.90609130     0.13500
C3448       C  0.86564899  0.02280107  0.92432885    -0.20900
C3449       C  0.88082784  0.02913866  0.95087551    -0.07400
C3450       C  0.88961145  0.01289715  0.96062292     0.13500
C3451       C  0.90585498  0.01790976  0.98871153    -0.24200
H3452       H  0.88985047  0.47920033  0.95121364     0.14800
H3453       H  0.85859021  0.03482900  0.91672254     0.14800
C3454       C  0.84708612  0.49757334  0.87572598    -0.24200
H3455       H  0.91115650  0.00334546  0.99217460     0.05000
H3456       H  0.89566579  0.01812593  0.00983830     0.08200
H3457       H  0.92337180  0.03596758  0.98595442     0.08200
H3458       H  0.82977365  0.47919074  0.87622456     0.08200
H3459       H  0.85923783  0.49797771  0.85642800     0.08200
H3460       H  0.84181584  0.51200812  0.87098831     0.05000
C3461       C  0.92901462  0.20265963  0.98682652    -0.20800
C3462       C  0.91260297  0.18418476  0.96654136    -0.07400
C3463       C  0.89998790  0.19019037  0.94390335     0.13500
C3464       C  0.90147741  0.21352928  0.94482053    -0.20900
C3465       C  0.91458635  0.23037193  0.96852798    -0.07400
C3466       C  0.93019884  0.22582312  0.98812866     0.13500
C3467       C  0.94740654  0.24489672  0.01113345    -0.24200
H3468       H  0.93923012  0.19815217  0.00356997     0.14800
H3469       H  0.88986990  0.21729127  0.92947998     0.14800
C3470       C  0.88239637  0.17103929  0.92154910    -0.24200
H3471       H  0.95950212  0.23880238  0.02276731     0.05000
H3472       H  0.93719673  0.24858245  0.52856072     0.08200
H3473       H  0.95967542  0.26272404  0.99896276     0.08200
H3474       H  0.86766960  0.15627958  0.43456491     0.08200
H3475       H  0.89238834  0.16361787  0.90762169     0.08200
H3476       H  0.87405628  0.17884214  0.90537630     0.05000
C3477       C  0.62860835  0.11471442  0.95823729    -0.20800
C3478       C  0.65281289  0.12430082  0.94591955    -0.07400
C3479       C  0.65940338  0.13970988  0.91907471     0.13500
C3480       C  0.64106048  0.14294348  0.90400179    -0.20900
C3481       C  0.61639932  0.13123197  0.91481959    -0.07400
C3482       C  0.61041268  0.11799297  0.94312189     0.13500
C3483       C  0.58506621  0.10780648  0.95794547    -0.24200
H3484       H  0.62343402  0.10369609  0.97932202     0.14800
H3485       H  0.64568878  0.15357695  0.88261082     0.14800
C3486       C  0.68544097  0.15268614  0.90570626    -0.24200
H3487       H  0.58406757  0.09914861  0.98085788     0.05000
H3488       H  0.57044427  0.09335860  0.94317322     0.08200
H3489       H  0.58118948  0.12330606  0.96159703     0.08200
H3490       H  0.69016725  0.13885995  0.89629278     0.08200
H3491       H  0.69899356  0.16406221  0.92384597     0.08200
H3492       H  0.68735332  0.16537732  0.88634009     0.05000
C3493       C  0.62916225  0.01424693  0.95994565    -0.20800
C3494       C  0.65301598  0.02936568  0.94705219    -0.07400
C3495       C  0.65967046  0.02112226  0.91973619     0.13500
C3496       C  0.64177595  0.99922139  0.90519416    -0.20900
C3497       C  0.61806281  0.48578366  0.91673979    -0.07400
C3498       C  0.61250432  0.49142867  0.94631897     0.13500
C3499       C  0.58798789  0.47461089  0.96211654    -0.24200
H3500       H  0.62541297  0.51758029  0.98368540     0.14800
H3501       H  0.64638980  0.99355021  0.88354060     0.14800
C3502       C  0.68527197  0.03521422  0.90523310    -0.24200
H3503       H  0.58702347  0.48136083  0.98561969     0.05000
H3504       H  0.58575199  0.45575720  0.96457015     0.08200
H3505       H  0.57232179  0.47354027  0.94845987     0.08200
H3506       H  0.69966177  0.03822096  0.92265672     0.08200
H3507       H  0.68856362  0.05332990  0.89592343     0.08200
H3508       H  0.68743603  0.02487861  0.88556210     0.05000
C3509       C  0.79127879  0.19042296  0.94111181    -0.20800
C3510       C  0.77366652  0.18572124  0.96453040    -0.07400
C3511       C  0.77745667  0.20501831  0.98511667     0.13500
C3512       C  0.80036926  0.22709825  0.98483476    -0.20900
C3513       C  0.81938343  0.23042116  0.96426876    -0.07400
C3514       C  0.81435403  0.21256116  0.94088089     0.13500
C3515       C  0.83354574  0.21499381  0.91733605    -0.24200
H3516       H  0.78826317  0.17571110  0.92511927     0.14800
H3517       H  0.80410472  0.24101061  0.00240517     0.14800
C3518       C  0.75823303  0.20226447  0.00882419    -0.24200
H3519       H  0.82613869  0.21399727  0.89367667     0.08600
H3520       H  0.83755207  0.19949385  0.92039070     0.08200
H3521       H  0.85138087  0.23269479  0.91908149     0.08200
H3522       H  0.76525232  0.20206908  0.53268384     0.08200
H3523       H  0.74036243  0.18462690  0.00624747     0.08200
H3524       H  0.75416220  0.21774238  0.00608348     0.05000
C3525       C  0.78728958  0.09426380  0.94131823    -0.20800
C3526       C  0.77183766  0.08603795  0.96761655    -0.07400
C3527       C  0.77687649  0.07278741  0.48922077     0.13500
C3528       C  0.79953268  0.07289892  0.48868408    -0.20900
C3529       C  0.81668721  0.08519464  0.96727297    -0.07400
C3530       C  0.80959732  0.09337191  0.94054322     0.13500
C3531       C  0.82575062  0.10204161  0.91194802    -0.24200
H3532       H  0.78304708  0.10326428  0.92263278     0.14800
H3533       H  0.80448882  0.06513168  0.50812990     0.14800
C3534       C  0.75859742  0.05937533  0.51520567    -0.24200
H3535       H  0.81744188  0.10816535  0.89354073     0.05000
H3536       H  0.82793031  0.08650389  0.90267805     0.08200
H3537       H  0.84436905  0.11776420  0.91731393     0.08200
H3538       H  0.74002531  0.04631891  0.50543449     0.08200
H3539       H  0.75698059  0.07273472  0.53071237     0.08200
H3540       H  0.76453963  0.04838353  0.52965722     0.05000
C3541       C  0.97495210  0.31125882  0.57443687    -0.20800
C3542       C  0.95004376  0.29950871  0.58430235    -0.07400
C3543       C  0.94310328  0.28558548  0.61214143     0.13500
C3544       C  0.96076298  0.28178122  0.62772132    -0.20900
C3545       C  0.98506000  0.29115376  0.61597417    -0.07400
C3546       C  0.99260754  0.30719704  0.58975609     0.13500
C3547       C  0.01899287  0.31997983  0.57746413    -0.24200
H3548       H  0.98027469  0.32237323  0.55333833     0.14800
H3549       H  0.95501432  0.27014001  0.64836021     0.14800
C3550       C  0.91712907  0.27460751  0.62550063    -0.24200
H3551       H  0.02177841  0.33348063  0.55873748     0.05000
H3552       H  0.02348400  0.30615676  0.56748585     0.08200
H3553       H  0.03219353  0.33039823  0.59636380     0.08200
H3554       H  0.90341588  0.25981008  0.61023483     0.08200
H3555       H  0.91212573  0.28943596  0.62825987     0.08200
H3556       H  0.91567363  0.26605347  0.64861967     0.05000
C3557       C  0.97365594  0.16494873  0.57523595    -0.20800
C3558       C  0.94852670  0.15364600  0.58417220    -0.07400
C3559       C  0.94180022  0.16253108  0.61051076     0.13500
C3560       C  0.96007169  0.18348656  0.62593424    -0.20900
C3561       C  0.98496992  0.19634121  0.61549421    -0.07400
C3562       C  0.99198637  0.18634769  0.59024259     0.13500
C3563       C  0.51900121  0.19634666  0.58125970    -0.24200
H3564       H  0.97873202  0.15789395  0.55514717     0.14800
H3565       H  0.95443222  0.19050273  0.64552365     0.14800
C3566       C  0.91542820  0.14989114  0.62276340    -0.24200
H3567       H  0.52124074  0.18431586  0.56397078     0.05000
H3568       H  0.53094222  0.19828830  0.60140423     0.08200
H3569       H  0.52555911  0.21474047  0.57010251     0.08200
H3570       H  0.90930376  0.13009866  0.62769198     0.08200
H3571       H  0.90271914  0.15121693  0.60578084     0.08200
H3572       H  0.91386863  0.15848098  0.64461290     0.05000
C3573       C  0.55032262  0.32474297  0.77636133    -0.20800
C3574       C  0.53719639  0.31988542  0.74857524    -0.07400
C3575       C  0.52750541  0.33519650  0.73919588     0.13500
C3576       C  0.53224573  0.35586118  0.75730050    -0.20900
C3577       C  0.54689737  0.36190698  0.78427181    -0.07400
C3578       C  0.55531967  0.34546005  0.79445861     0.13500
C3579       C  0.57061325  0.34989741  0.82334498    -0.24200
H3580       H  0.55769687  0.31278037  0.78318367     0.14800
H3581       H  0.52535863  0.36798048  0.74947492     0.14800
C3582       C  0.01050492  0.32882168  0.71157513    -0.24200
H3583       H  0.57552281  0.33508790  0.82717422     0.05000
H3584       H  0.55984313  0.35001081  0.84393038     0.08200
H3585       H  0.58835759  0.36782935  0.82139613     0.08200
H3586       H  0.99390140  0.30994253  0.71307119     0.08200
H3587       H  0.02193026  0.32983138  0.69110675     0.08200
H3588       H  0.00389483  0.34238197  0.70803065     0.05000
C3589       C  0.52212755  0.19492977  0.74496539    -0.20800
C3590       C  0.53670875  0.22033902  0.75162346    -0.07400
C3591       C  0.55244247  0.22772774  0.77782032     0.13500
C3592       C  0.55559435  0.20987977  0.79413235    -0.20900
C3593       C  0.54339762  0.18481017  0.78505862    -0.07400
C3594       C  0.52517425  0.17699685  0.76142000     0.13500
C3595       C  0.50879154  0.14992684  0.75338969    -0.24200
H3596       H  0.50935377  0.18919327  0.72561243     0.14800
H3597       H  0.56878317  0.21588345  0.81304793     0.14800
C3598       C  0.06545392  0.25446152  0.78964690    -0.24200
H3599       H  0.51994883  0.14239309  0.74254064     0.05000
H3600       H  0.49941353  0.13911143  0.77463792     0.08200
H3601       H  0.49406979  0.14725209  0.73663758     0.08200
H3602       H  0.05191831  0.26113048  0.79319737     0.08200
H3603       H  0.58038315  0.26651248  0.77185093     0.08200
H3604       H  0.07500476  0.25624770  0.81202035     0.05000
C3605       C  0.72518462  0.04264193  0.62366639    -0.20800
C3606       C  0.71236355  0.01747342  0.61476600    -0.07400
C3607       C  0.69428426  0.01016972  0.59090369     0.13500
C3608       C  0.69135810  0.02845665  0.57504981    -0.20900
C3609       C  0.70602914  0.05375631  0.58216970    -0.07400
C3610       C  0.72235339  0.06081156  0.60770476     0.13500
C3611       C  0.73686529  0.08748730  0.61837407    -0.24200
H3612       H  0.73851411  0.04850915  0.64240502     0.14800
H3613       H  0.67853912  0.02310000  0.55576844     0.14800
C3614       C  0.67804332  0.98336102  0.58165895    -0.24200
H3615       H  0.74705318  0.08923130  0.64020488     0.05000
H3616       H  0.72391336  0.09475853  0.62270672     0.08200
H3617       H  0.75092181  0.09921159  0.60072550     0.08200
H3618       H  0.66853242  0.47240235  0.60365089     0.08200
H3619       H  0.68950147  0.97613648  0.57085615     0.08200
H3620       H  0.66378989  0.98117089  0.56442852     0.05000
C3621       C  0.81846409  0.04185848  0.62730742    -0.20800
C3622       C  0.80563468  0.01709593  0.61711153    -0.07400
C3623       C  0.81530657  0.00998748  0.59172187     0.13500
C3624       C  0.83651364  0.02821677  0.57602749    -0.20900
C3625       C  0.84791309  0.05329866  0.58468130    -0.07400
C3626       C  0.83931748  0.06007611  0.61130659     0.13500
C3627       C  0.85216861  0.08639449  0.62321488    -0.24200
H3628       H  0.81139461  0.04733236  0.64704051     0.14800
H3629       H  0.84339098  0.02308321  0.55579914     0.14800
C3630       C  0.80352375  0.98338284  0.58095199    -0.24200
H3631       H  0.84375133  0.08798152  0.64527630     0.05000
H3632       H  0.85079354  0.09911174  0.60622497     0.08200
H3633       H  0.87201612  0.09241727  0.62764079     0.08200
H3634       H  0.78483055  0.97732500  0.57111248     0.08200
H3635       H  0.80200654  0.47030917  0.59999894     0.08200
H3636       H  0.81483001  0.98107591  0.56255312     0.05000
C3637       C  0.67047499  0.47938450  0.74086973    -0.20800
C3638       C  0.68390024  0.46791275  0.75076015    -0.07400
C3639       C  0.67723843  0.45432614  0.77880925     0.13500
C3640       C  0.65571629  0.45026120  0.79448818    -0.20900
C3641       C  0.64041997  0.45921626  0.78279472    -0.07400
C3642       C  0.64869976  0.47518801  0.75642691     0.13500
C3643       C  0.63474539  0.48756731  0.74396475    -0.24200
H3644       H  0.67602225  0.49020363  0.71960087     0.14800
H3645       H  0.65020968  0.43882737  0.81523207     0.14800
C3646       C  0.69276945  0.44408466  0.79241543    -0.24200
H3647       H  0.64523505  0.50091544  0.72501239     0.05000
H3648       H  0.63176492  0.49810505  0.76269714     0.08200
H3649       H  0.61658991  0.47346366  0.73424040     0.08200
H3650       H  0.71289879  0.96131956  0.79573255     0.08200
H3651       H  0.69262534  0.42959416  0.77722833     0.08200
H3652       H  0.68566240  0.43538459  0.81547539     0.05000
C3653       C  0.80544365  0.47641153  0.74477840    -0.20800
C3654       C  0.77994487  0.46138237  0.75122260    -0.07400
C3655       C  0.77231118  0.44410038  0.77600723     0.13500
C3656       C  0.79018061  0.44094783  0.79204860    -0.20900
C3657       C  0.81548952  0.45429963  0.78379499    -0.07400
C3658       C  0.82338169  0.47303833  0.76064696     0.13500
C3659       C  0.85053131  0.48958851  0.75253192    -0.24200
H3660       H  0.81125937  0.48990281  0.72606381     0.14800
H3661       H  0.78409012  0.42696587  0.81019904     0.14800
C3662       C  0.74540000  0.42901574  0.78596370    -0.24200
H3663       H  0.85325304  0.50447864  0.73593112     0.05000
H3664       H  0.85817366  0.47861567  0.74145578     0.08200
H3665       H  0.86124463  0.49866733  0.77377659     0.08200
H3666       H  0.73403065  0.41582781  0.76758168     0.08200
H3667       H  0.73751657  0.94054396  0.79109453     0.08200
H3668       H  0.74295776  0.91665070  0.80609921     0.05000
C3669       C  0.62254938  0.35607220  0.60946735    -0.20800
C3670       C  0.60429372  0.35181837  0.63169691    -0.07400
C3671       C  0.60732946  0.37133308  0.65126849     0.13500
C3672       C  0.63027680  0.39346432  0.65140159    -0.20900
C3673       C  0.65009709  0.39619451  0.63260261    -0.07400
C3674       C  0.64576758  0.37794644  0.61003886     0.13500
C3675       C  0.66623697  0.38008938  0.58890077    -0.24200
H3676       H  0.61975439  0.34111371  0.59407323     0.14800
H3677       H  0.63344822  0.40780778  0.66808155     0.14800
C3678       C  0.58675586  0.36834704  0.67287415    -0.24200
H3679       H  0.65967595  0.36370374  0.57346754     0.05000
H3680       H  0.68190820  0.38136888  0.60282444     0.08200
H3681       H  0.67300362  0.39689810  0.57405516     0.08200
H3682       H  0.58230747  0.35328648  0.68994932     0.08200
H3683       H  0.56979039  0.36372357  0.65926863     0.08200
H3684       H  0.59205822  0.38569888  0.68594539     0.05000
C3685       C  0.84584777  0.28587607  0.61130056    -0.20800
C3686       C  0.85073538  0.29934767  0.58364768    -0.07400
C3687       C  0.83623226  0.31025960  0.57554144     0.13500
C3688       C  0.81571316  0.30563559  0.59418722    -0.20900
C3689       C  0.80936539  0.29032148  0.62071431    -0.07400
C3690       C  0.82551659  0.28135072  0.63019336     0.13500
C3691       C  0.82102506  0.26589075  0.65907815    -0.24200
H3692       H  0.85742965  0.27788450  0.61738684     0.14800
H3693       H  0.80390142  0.31311329  0.58715267     0.14800
C3694       C  0.84142209  0.32543126  0.54628703    -0.24200
H3695       H  0.83561323  0.26058141  0.66237929     0.05000
H3696       H  0.80282413  0.24842626  0.65758930     0.08200
H3697       H  0.82136126  0.27670083  0.67974399     0.08200
H3698       H  0.84020453  0.31399363  0.52587914     0.08200
H3699       H  0.86038538  0.34195647  0.54727593     0.08200
H3700       H  0.82787533  0.33210958  0.54307347     0.05000
C3701       C  0.71672762  0.15751514  0.60814843    -0.20800
C3702       C  0.70460251  0.15348602  0.57965975    -0.07400
C3703       C  0.69614052  0.16976240  0.56992981     0.13500
C3704       C  0.70131408  0.19054437  0.58819693    -0.20900
C3705       C  0.71489731  0.19565814  0.61603196    -0.07400
C3706       C  0.72184101  0.17813535  0.62663688     0.13500
C3707       C  0.73530811  0.18101211  0.65675185    -0.24200
H3708       H  0.72308628  0.14481470  0.61542466     0.14800
H3709       H  0.69542292  0.20335118  0.57994417     0.14800
C3710       C  0.68289768  0.16605750  0.53948999    -0.24200
H3711       H  0.73855229  0.16515489  0.66121363     0.05000
H3712       H  0.72397594  0.18170965  0.67634881     0.08200
H3713       H  0.75384491  0.19814808  0.65612414     0.08200
H3714       H  0.66527655  0.14793669  0.53970882     0.08200
H3715       H  0.69492932  0.16627172  0.52018558     0.08200
H3716       H  0.67816819  0.18091060  0.53499596     0.05000
C3717       C  0.79347697  0.34618580  0.79677334    -0.20800
C3718       C  0.81811401  0.36027278  0.78569286    -0.07400
C3719       C  0.82575053  0.35074747  0.76051412     0.13500
C3720       C  0.80807425  0.32883743  0.74572095    -0.20900
C3721       C  0.78300023  0.31648449  0.75494088    -0.07400
C3722       C  0.77584205  0.32460396  0.78162030     0.13500
C3723       C  0.74957256  0.31058311  0.79417992    -0.24200
H3724       H  0.78747666  0.35276481  0.81647180     0.14800
H3725       H  0.81349697  0.32231620  0.72541433     0.14800
C3726       C  0.85221004  0.36354843  0.74849513    -0.24200
H3727       H  0.74756208  0.31879559  0.81610495     0.05000
H3728       H  0.74456563  0.29102675  0.79901657     0.08200
H3729       H  0.73623636  0.31093893  0.77736220     0.08200
H3730       H  0.86525351  0.36657276  0.76776190     0.08200
H3731       H  0.85690556  0.38158436  0.73750004     0.08200
H3732       H  0.85499838  0.35225653  0.73061920     0.05000
C3733       C  0.65618007  0.20120698  0.79547131    -0.20800
C3734       C  0.63785059  0.18002581  0.77991811    -0.07400
C3735       C  0.64357468  0.17491722  0.74970300     0.13500
C3736       C  0.66603793  0.19218310  0.73526631    -0.20900
C3737       C  0.68285108  0.21435573  0.74985470    -0.07400
C3738       C  0.67847214  0.21842370  0.78075690     0.13500
C3739       C  0.69726532  0.24104476  0.79811158    -0.24200
H3740       H  0.65271600  0.20498334  0.81892302     0.14800
H3741       H  0.66976982  0.18914681  0.71156606     0.14800
C3742       C  0.62611971  0.15196964  0.73169321    -0.24200
H3743       H  0.69138893  0.24095228  0.82247799     0.05000
H3744       H  0.69961875  0.25818452  0.78678623     0.08200
H3745       H  0.71546578  0.24148854  0.79838335     0.08200
H3746       H  0.60859537  0.15209735  0.72652996     0.08200
H3747       H  0.62206435  0.13502347  0.74509899     0.08200
H3748       H  0.63431203  0.15098709  0.70914774     0.05000
C3749       C  0.73554841  0.37869923  0.61265281    -0.20800
C3750       C  0.74601516  0.39549108  0.63720358    -0.07400
C3751       C  0.75995841  0.39128205  0.65991036     0.13500
C3752       C  0.76005160  0.36869983  0.66003887    -0.20900
C3753       C  0.74674331  0.35039518  0.63786438    -0.07400
C3754       C  0.73580983  0.35608044  0.61267931     0.13500
C3755       C  0.72262524  0.33754267  0.58731238    -0.24200
H3756       H  0.72518224  0.38218320  0.59503797     0.14800
H3757       H  0.76895773  0.36452345  0.67889952     0.14800
C3758       C  0.77383549  0.41010649  0.68486414    -0.24200
H3759       H  0.71454522  0.34473256  0.56990389     0.05000
H3760       H  0.70726153  0.32013202  0.59729541     0.08200
H3761       H  0.73602017  0.33337208  0.57521639     0.08200
H3762       H  0.76060055  0.41216845  0.70025387     0.08200
H3763       H  0.78686853  0.42837026  0.67411997     0.08200
H3764       H  0.78490199  0.40441898  0.69954453     0.05000
C3765       C  0.65046805  0.27226802  0.61419524    -0.20800
C3766       C  0.65293019  0.25657489  0.63564776    -0.07400
C3767       C  0.63188810  0.23926618  0.65281237     0.13500
C3768       C  0.60974454  0.24024072  0.65094378    -0.20900
C3769       C  0.60839104  0.25830657  0.63270100    -0.07400
C3770       C  0.62851031  0.27369694  0.61291856     0.13500
C3771       C  0.62787563  0.29339602  0.59300705    -0.24200
H3772       H  0.66658425  0.28531024  0.60082610     0.14800
H3773       H  0.59410884  0.22828172  0.66579189     0.14800
C3774       C  0.63300417  0.22037831  0.67390581    -0.24200
H3775       H  0.64546912  0.30427855  0.57965364     0.05000
H3776       H  0.62524165  0.30652801  0.60786750     0.08200
H3777       H  0.61228705  0.28456699  0.57630502     0.08200
H3778       H  0.64616207  0.22971422  0.69318315     0.08200
H3779       H  0.63916159  0.20907313  0.66049604     0.08200
H3780       H  0.61449213  0.20752544  0.68429561     0.05000
Fe3781     Fe  0.71537239  0.78350779  0.19767700     1.65800
Fe3782     Fe  0.74847425  0.75316473  0.18987704     1.73200
Fe3783     Fe  0.73034474  0.77274777  0.12511350     1.54400
O3784       O  0.69296747  0.76289025  0.12421684    -0.82200
O3785       O  0.77968838  0.77218048  0.16235403    -0.80500
O3786       O  0.68316270  0.76758720  0.17250161    -0.84700
O3787       O  0.72954012  0.81612909  0.17276158    -0.79500
O3788       O  0.71966492  0.73577247  0.11833035    -0.81300
O3789       O  0.76682266  0.78086575  0.22282139    -0.84100
C3790       C  0.73851570  0.82387421  0.14593738     0.96700
C3791       C  0.67741421  0.76154340  0.14449768     1.04100
O3792       O  0.73141937  0.76980721  0.17081833    -1.13000
O3793       O  0.71889005  0.73140022  0.21936297    -0.75500
O3794       O  0.69892926  0.75271548  0.22606893    -0.79000
O3795       O  0.74086621  0.81019474  0.12590578    -0.79700
C3796       C  0.70155460  0.73401636  0.23135218     0.95600
O3797       O  0.74565850  0.80123321  0.22587100    -0.77600
O3798       O  0.73299201  0.72384040  0.15909474    -0.82800
C3799       C  0.78405837  0.78167568  0.13544937     0.98200
C3800       C  0.72265526  0.71953698  0.13276517     1.04100
O3801       O  0.76746650  0.78300275  0.11960001    -0.78500
C3802       C  0.76373399  0.79825901  0.23356333     1.02400
Fe3803     Fe  0.71306126  0.93034038  0.19412827     1.65800
Fe3804     Fe  0.74683338  0.49251629  0.18641023     1.73200
Fe3805     Fe  0.72832609  0.95569972  0.12198363     1.54400
O3806       O  0.74162328  0.93075232  0.12372904    -0.82200
O3807       O  0.73262431  0.50708053  0.15433109    -0.80500
O3808       O  0.72482266  0.91045209  0.16786810    -0.84700
O3809       O  0.68022995  0.91648435  0.17066146    -0.79500
O3810       O  0.76454514  0.98391015  0.11534124    -0.81300
O3811       O  0.71731843  0.98651285  0.21465500    -0.84100
C3812       C  0.67541256  0.91452280  0.14203042     0.96700
C3813       C  0.73699692  0.91345060  0.14302716     1.04100
O3814       O  0.72955599  0.95980850  0.16741806    -1.13000
O3815       O  0.76357175  0.48199177  0.22060668    -0.75500
O3816       O  0.74405540  0.94131890  0.22040442    -0.79000
O3817       O  0.69176903  0.92675273  0.12153991    -0.79700
C3818       C  0.76124574  0.96209596  0.22977749     0.95600
O3819       O  0.69924260  0.94593548  0.22426093    -0.77600
O3820       O  0.77839639  0.50345936  0.16003058    -0.82800
C3821       C  0.72013473  0.50013855  0.12936799     0.98200
C3822       C  0.78168019  0.49981325  0.13194623     1.04100
O3823       O  0.71512127  0.98029164  0.11597955    -0.78500
C3824       C  0.70140497  0.96707163  0.22878585     1.02400
Fe3825     Fe  0.57145688  0.78591924  0.19296141     1.65800
Fe3826     Fe  0.00796094  0.75490690  0.18594858     1.73200
Fe3827     Fe  0.54587169  0.77325876  0.12059468     1.54400
O3828       O  0.57111860  0.81092641  0.12045790    -0.82200
O3829       O  0.99487596  0.72523900  0.15595317    -0.80500
O3830       O  0.58908182  0.81773108  0.16677279    -0.84700
O3831       O  0.58798841  0.76945559  0.16896583    -0.79500
O3832       O  0.51823917  0.78228112  0.11417839    -0.81300
O3833       O  0.51655450  0.73438438  0.21682774    -0.84100
C3834       C  0.58847207  0.76365371  0.14099759     0.96700
C3835       C  0.58677064  0.82508507  0.14024835     1.04100
O3836       O  0.54183445  0.77126111  0.16636195    -1.13000
O3837       O  0.51714158  0.78309054  0.21729143    -0.75500
O3838       O  0.55858450  0.80410201  0.22014070    -0.79000
O3839       O  0.57447137  0.76474248  0.12035050    -0.79700
C3840       C  0.53735583  0.80090264  0.22742338     0.95600
O3841       O  0.55762320  0.75629008  0.22285590    -0.77600
O3842       O  0.99556111  0.77326848  0.15757788    -0.82800
C3843       C  0.00125474  0.72037082  0.13001745     0.98200
C3844       C  0.00074031  0.78213433  0.13032200     1.04100
O3845       O  0.52073436  0.73595356  0.11505274    -0.78500
C3846       C  0.53654005  0.73797600  0.22961948     1.02400
Fe3847     Fe  0.73959249  0.62060342  0.02494330     1.65800
Fe3848     Fe  0.67643746  0.58835474  0.01788247     1.73200
Fe3849     Fe  0.71358945  0.60740762  0.45251857     1.54400
O3850       O  0.74150822  0.64452855  0.45165537    -0.82200
O3851       O  0.66413035  0.55740301  0.49002959    -0.80500
O3852       O  0.75571089  0.65318574  0.00062606    -0.84700
O3853       O  0.75703364  0.60607428  0.99910281    -0.79500
O3854       O  0.68804150  0.61936345  0.44706029    -0.81300
O3855       O  0.68586579  0.56977374  0.05076993    -0.84100
C3856       C  0.75435664  0.59577644  0.47306902     0.96700
C3857       C  0.75535066  0.65960200  0.47221721     1.04100
O3858       O  0.70988522  0.60558226  0.99847688    -1.13000
O3859       O  0.68458054  0.61783769  0.04755143    -0.75500
O3860       O  0.72569874  0.63669342  0.05425913    -0.79000
O3861       O  0.73918928  0.59495362  0.45275545    -0.79700
C3862       C  0.70458927  0.63453386  0.05976645     0.95600
O3863       O  0.72721553  0.59004530  0.05273772    -0.77600
O3864       O  0.66238743  0.60426497  0.48756967    -0.82800
C3865       C  0.66894354  0.55383272  0.46248726     0.98200
C3866       C  0.66863932  0.61564787  0.46170151     1.04100
O3867       O  0.68619905  0.57093571  0.44651840    -0.78500
C3868       C  0.70625228  0.57239794  0.06109867     1.02400
Fe3869     Fe  0.88034683  0.61950512  0.02613963     1.65800
Fe3870     Fe  0.91300425  0.58863638  0.02141103     1.73200
Fe3871     Fe  0.89502063  0.60609589  0.45432711     1.54400
O3872       O  0.85739582  0.59491335  0.45349214    -0.82200
O3873       O  0.94453424  0.60707395  0.49275980    -0.80500
O3874       O  0.84840124  0.60277421  0.00040874    -0.84700
O3875       O  0.89503646  0.65139473  0.00029723    -0.79500
O3876       O  0.88514747  0.56935393  0.44927280    -0.81300
O3877       O  0.93177351  0.61749725  0.05255938    -0.84100
C3878       C  0.90312019  0.65758743  0.47236112     0.96700
C3879       C  0.84195406  0.59378736  0.47375331     1.04100
O3880       O  0.89618279  0.60483397  0.00073537    -1.13000
O3881       O  0.88394406  0.56860430  0.05211612    -0.75500
O3882       O  0.86362963  0.58975850  0.05575581    -0.79000
O3883       O  0.90499482  0.64331518  0.45291284    -0.79700
C3884       C  0.86662976  0.57166594  0.06323785     0.95600
O3885       O  0.91051987  0.63780455  0.05447660    -0.77600
O3886       O  0.89809292  0.55832008  0.49113379    -0.82800
C3887       C  0.94884763  0.61655601  0.46579902     0.98200
C3888       C  0.88799241  0.55346833  0.46464976     1.04100
O3889       O  0.93219333  0.61713532  0.44937412    -0.78500
C3890       C  0.92865962  0.63504970  0.06257488     1.02400
Fe3891     Fe  0.88282085  0.76477988  0.02700936     1.65800
Fe3892     Fe  0.91448534  0.82765320  0.01956895     1.73200
Fe3893     Fe  0.89588512  0.79030295  0.45453429     1.54400
O3894       O  0.90262729  0.76067446  0.45453861    -0.82200
O3895       O  0.89495662  0.83935140  0.49256603    -0.80500
O3896       O  0.90149321  0.74999663  0.00421344    -0.84700
O3897       O  0.85201810  0.74598805  0.99929396    -0.79500
O3898       O  0.93361215  0.81344589  0.44978046    -0.81300
O3899       O  0.88723445  0.81845019  0.05330361    -0.84100
C3900       C  0.84447859  0.74866291  0.47247630     0.96700
C3901       C  0.90621015  0.74839971  0.47548803     1.04100
O3902       O  0.89758308  0.79443112  0.00049854    -1.13000
O3903       O  0.93588420  0.81911582  0.04826642    -0.75500
O3904       O  0.91132825  0.77892820  0.05841971    -0.79000
O3905       O  0.85788450  0.76658123  0.45443153    -0.79700
C3906       C  0.93106925  0.79938858  0.06275860     0.95600
O3907       O  0.86317373  0.77710583  0.05253364    -0.77600
O3908       O  0.94346660  0.84054422  0.48812479    -0.82800
C3909       C  0.88788445  0.83565051  0.46459603     0.98200
C3910       C  0.94910612  0.83306273  0.46359382     1.04100
O3911       O  0.88893689  0.81935011  0.44792401    -0.78500
C3912       C  0.86813348  0.79843282  0.06198377     1.02400
Fe3913     Fe  0.90424291  0.95344482  0.36018342     1.65800
Fe3914     Fe  0.84103020  0.92123691  0.35403713     1.73200
Fe3915     Fe  0.87795853  0.93970423  0.28819838     1.54400
O3916       O  0.90390839  0.97757112  0.28718256    -0.82200
O3917       O  0.82818395  0.89054125  0.32541816    -0.80500
O3918       O  0.92034308  0.98527119  0.33434105    -0.84700
O3919       O  0.92123270  0.93794934  0.33552984    -0.79500
O3920       O  0.85074527  0.94929970  0.28222228    -0.81300
O3921       O  0.85050130  0.90202536  0.38574581    -0.84100
C3922       C  0.92031827  0.92997127  0.30838049     0.96700
C3923       C  0.91865208  0.99234299  0.30738535     1.04100
O3924       O  0.87433391  0.93808044  0.33407939    -1.13000
O3925       O  0.84965937  0.95028076  0.38471252    -0.75500
O3926       O  0.89102977  0.97067327  0.38843779    -0.79000
O3927       O  0.90561780  0.92990484  0.28791003    -0.79700
C3928       C  0.86988403  0.96779885  0.39541719     0.95600
O3929       O  0.89178713  0.92370885  0.38937597    -0.77600
O3930       O  0.82721449  0.93783410  0.32481828    -0.82800
C3931       C  0.83400726  0.88599609  0.29889334     0.98200
C3932       C  0.83249553  0.94740500  0.29789241     1.04100
O3933       O  0.85221313  0.90239284  0.28324427    -0.78500
C3934       C  0.87093856  0.90550299  0.39699692     1.02400
Fe3935     Fe  0.54877155  0.95157345  0.36258865     1.65800
Fe3936     Fe  0.58159486  0.92112102  0.35366860     1.73200
Fe3937     Fe  0.56076373  0.93868280  0.28959340     1.54400
O3938       O  0.52305541  0.92654648  0.29086770    -0.82200
O3939       O  0.61126095  0.93920136  0.32356617    -0.80500
O3940       O  0.51613495  0.93612434  0.33818120    -0.84700
O3941       O  0.56334217  0.98389876  0.33767826    -0.79500
O3942       O  0.55184267  0.90220254  0.28337247    -0.81300
O3943       O  0.60149133  0.94983749  0.38456814    -0.84100
C3944       C  0.56990845  0.99039044  0.30988348     0.96700
C3945       C  0.50872931  0.92718587  0.31145820     1.04100
O3946       O  0.56371815  0.93710267  0.33523886    -1.13000
O3947       O  0.55369594  0.90075729  0.38581282    -0.75500
O3948       O  0.53250893  0.92102896  0.39060355    -0.79000
O3949       O  0.56939863  0.97557363  0.28929794    -0.79700
C3950       C  0.53616573  0.90324365  0.39746377     0.95600
O3951       O  0.57932803  0.96893255  0.39067664    -0.77600
O3952       O  0.56456546  0.89065962  0.32497428    -0.82800
C3953       C  0.61498679  0.94962455  0.29718883     0.98200
C3954       C  0.55450674  0.88608817  0.29850983     1.04100
O3955       O  0.59795110  0.95089304  0.28251405    -0.78500
C3956       C  0.59810607  0.96662035  0.39661021     1.02400
Fe3957     Fe  0.54608442  0.59593526  0.36120190     1.65800
Fe3958     Fe  0.57909069  0.65904269  0.35325421     1.73200
Fe3959     Fe  0.55791129  0.62159285  0.28868072     1.54400
O3960       O  0.56592127  0.59273075  0.28758669    -0.82200
O3961       O  0.56119955  0.67280759  0.32603006    -0.80500
O3962       O  0.56111618  0.57870016  0.33610575    -0.84700
O3963       O  0.51354508  0.57912386  0.33646152    -0.79500
O3964       O  0.59543458  0.64591899  0.28169187    -0.81300
O3965       O  0.55180361  0.65111146  0.38669521    -0.84100
C3966       C  0.50576401  0.58141369  0.31024234     0.96700
C3967       C  0.56693637  0.57851530  0.30804153     1.04100
O3968       O  0.56102985  0.62556190  0.33434593    -1.13000
O3969       O  0.59945496  0.64957703  0.38284402    -0.75500
O3970       O  0.57646730  0.60868384  0.38970303    -0.79000
O3971       O  0.51991778  0.59680205  0.28991304    -0.79700
C3972       C  0.59560774  0.62938634  0.39533748     0.95600
O3973       O  0.52950059  0.60980021  0.38940886    -0.77600
O3974       O  0.60853048  0.67122515  0.32217114    -0.82800
C3975       C  0.55114255  0.66762681  0.29949042     0.98200
C3976       C  0.61244513  0.66438950  0.29597095     1.04100
O3977       O  0.54939349  0.64968567  0.28348342    -0.78500
C3978       C  0.53390706  0.63115116  0.39770431     1.02400
C3979       C  0.59164821  0.55828269  0.31888300    -0.20800
C3980       C  0.57429839  0.56002883  0.29970388    -0.07400
C3981       C  0.56033576  0.54081852  0.27843665     0.13500
C3982       C  0.56214121  0.51908161  0.27929767    -0.20900
C3983       C  0.57686303  0.51604580  0.30163627    -0.07400
C3984       C  0.59300997  0.53639757  0.32028311     0.13500
C3985       C  0.61090489  0.53473942  0.34257377    -0.24200
H3986       H  0.60260943  0.57330192  0.33478951     0.14800
H3987       H  0.54944286  0.00336991  0.26471498     0.14800
C3988       C  0.54171589  0.54208649  0.25715563    -0.24200
H3989       H  0.62288922  0.55281147  0.35418183     0.05000
H3990       H  0.62323142  0.52946969  0.32982352     0.08200
H3991       H  0.60067135  0.52074719  0.36094783     0.08200
H3992       H  0.55142486  0.55842457  0.24149872     0.08200
H3993       H  0.52741379  0.54379175  0.27093367     0.08200
H3994       H  0.53197722  0.52516597  0.24260301     0.05000
C3995       C  0.93805002  0.53525001  0.32230550    -0.20800
C3996       C  0.93451597  0.51828420  0.29869705    -0.07400
C3997       C  0.95110345  0.52634855  0.27318279     0.13500
C3998       C  0.97360620  0.54907938  0.27527595    -0.20900
C3999       C  0.97913958  0.56383893  0.30194264    -0.07400
C4000       C  0.96014333  0.55810207  0.32413570     0.13500
C4001       C  0.96341626  0.57552992  0.35037319    -0.24200
H4002       H  0.92451997  0.52958023  0.34101680     0.14800
H4003       H  0.98775476  0.55409994  0.25748076     0.14800
C4004       C  0.94591004  0.51048005  0.24485354    -0.24200
H4005       H  0.94598330  0.56873332  0.36414349     0.05000
H4006       H  0.96843649  0.59413730  0.34087256     0.08200
H4007       H  0.97815301  0.57734242  0.36644564     0.08200
H4008       H  0.92745001  0.00911460  0.23584397     0.08200
H4009       H  0.94348411  0.99359067  0.25063873     0.08200
H4010       H  0.96104181  0.51948689  0.22731622     0.05000
C4011       C  0.94084395  0.90628524  0.32343553    -0.20800
C4012       C  0.93808217  0.92131342  0.30120501    -0.07400
C4013       C  0.95605071  0.93238330  0.27738697     0.13500
C4014       C  0.97802930  0.93101858  0.27891822    -0.20900
C4015       C  0.98240135  0.91937284  0.30410228    -0.07400
C4016       C  0.96290835  0.90522357  0.32525960     0.13500
C4017       C  0.96565937  0.88979325  0.35041943    -0.24200
H4018       H  0.92662180  0.89719196  0.34115272     0.14800
H4019       H  0.99294342  0.94150259  0.26245061     0.14800
C4020       C  0.95345015  0.94793377  0.25247133    -0.24200
H4021       H  0.94805407  0.87893131  0.36374809     0.05000
H4022       H  0.48068065  0.90173084  0.36673606     0.08200
H4023       H  0.97062749  0.87645361  0.33990887     0.08200
H4024       H  0.95276167  0.96377502  0.26331820     0.08200
H4025       H  0.93610748  0.93647811  0.23920244     0.08200
H4026       H  0.96941014  0.95556257  0.23597213     0.05000
C4027       C  0.89088384  0.87690614  0.46025426    -0.20800
C4028       C  0.87955254  0.85208417  0.45035233    -0.07400
C4029       C  0.86189269  0.84421649  0.42606358     0.13500
C4030       C  0.85782202  0.86187659  0.41062398    -0.20900
C4031       C  0.87116229  0.88711080  0.41856721    -0.07400
C4032       C  0.88705345  0.89455799  0.44459298     0.13500
C4033       C  0.90009553  0.92107794  0.45597505    -0.24200
H4034       H  0.90391083  0.88289511  0.47934950     0.14800
H4035       H  0.84533379  0.85619979  0.39097864     0.14800
C4036       C  0.84726501  0.81737648  0.41618811    -0.24200
H4037       H  0.91010192  0.92301844  0.47801768     0.05000
H4038       H  0.88620962  0.92719857  0.46018584     0.08200
H4039       H  0.91412017  0.93362722  0.43880084     0.08200
H4040       H  0.83763215  0.80539213  0.43656001     0.08200
H4041       H  0.85979382  0.81145093  0.40539114     0.08200
H4042       H  0.83286316  0.81444666  0.39880149     0.05000
C4043       C  0.48852244  0.87363250  0.46097355    -0.20800
C4044       C  0.97432950  0.84890400  0.44987224    -0.07400
C4045       C  0.98395471  0.84141063  0.42463289     0.13500
C4046       C  0.00577502  0.85926353  0.40953790    -0.20900
C4047       C  0.51810977  0.88427512  0.41881289    -0.07400
C4048       C  0.51019027  0.89119355  0.44583962     0.13500
C4049       C  0.52453966  0.91709837  0.45893164    -0.24200
H4050       H  0.48208775  0.87953890  0.48089923     0.14800
H4051       H  0.01229636  0.85413329  0.38896734     0.14800
C4052       C  0.97146033  0.81500452  0.41294575    -0.24200
H4053       H  0.51650448  0.91874682  0.48126762     0.05000
H4054       H  0.52436675  0.93096047  0.44278858     0.08200
H4055       H  0.54400192  0.92159650  0.46324407     0.08200
H4056       H  0.95325753  0.80999701  0.40231464     0.08200
H4057       H  0.96877737  0.80206319  0.43233012     0.08200
H4058       H  0.98286312  0.81246648  0.39488624     0.05000
C4059       C  0.00501715  0.64644721  0.41170723    -0.20800
C4060       C  0.51640901  0.63217313  0.42010656    -0.07400
C4061       C  0.50735471  0.61572484  0.44572783     0.13500
C4062       C  0.48644956  0.61282431  0.46186019    -0.20900
C4063       C  0.97384537  0.62535089  0.45209451    -0.07400
C4064       C  0.98377114  0.64315996  0.42777404     0.13500
C4065       C  0.97217887  0.65865065  0.41843150    -0.24200
H4066       H  0.01176336  0.65878672  0.39177901     0.14800
H4067       H  0.47887223  0.59921721  0.48044849     0.14800
C4068       C  0.51958169  0.60111809  0.45628623    -0.24200
H4069       H  0.98389954  0.67316449  0.40118123     0.05000
H4070       H  0.97010565  0.66818854  0.43905391     0.08200
H4071       H  0.95373685  0.64683356  0.40764858     0.08200
H4072       H  0.53948352  0.61421580  0.46096268     0.08200
H4073       H  0.51781753  0.58742078  0.43855496     0.08200
H4074       H  0.51102553  0.59057129  0.47797702     0.05000
C4075       C  0.88361636  0.99179961  0.44373572    -0.20800
C4076       C  0.86967722  0.98640070  0.41647255    -0.07400
C4077       C  0.85991609  0.00172743  0.40734261     0.13500
C4078       C  0.86618962  0.52313646  0.42231130    -0.20900
C4079       C  0.87990069  0.52875914  0.45007916    -0.07400
C4080       C  0.88716020  0.51165698  0.46128586     0.13500
C4081       C  0.90141185  0.51561633  0.49098601    -0.24200
H4082       H  0.89124700  0.98001282  0.45033459     0.14800
H4083       H  0.86021205  0.53574115  0.41354028     0.14800
C4084       C  0.84554470  0.99706773  0.37763636    -0.24200
H4085       H  0.90529298  0.50021378  0.49574821     0.05000
H4086       H  0.89035065  0.51644584  0.51081465     0.08200
H4087       H  0.91966336  0.53305653  0.48948209     0.08200
H4088       H  0.82837478  0.97858820  0.37867477     0.08200
H4089       H  0.85722944  0.99755871  0.35771962     0.08200
H4090       H  0.83992670  0.01132129  0.37348289     0.05000
C4091       C  0.92821883  0.70214462  0.48353478    -0.20800
C4092       C  0.91097381  0.68348081  0.46410671    -0.07400
C4093       C  0.89736416  0.68920645  0.44265662     0.13500
C4094       C  0.89907144  0.71262651  0.44376057    -0.20900
C4095       C  0.91326359  0.72977864  0.46669473    -0.07400
C4096       C  0.92953459  0.72536221  0.48515457     0.13500
C4097       C  0.94762034  0.74466887  0.50726995    -0.24200
H4098       H  0.93903808  0.69776381  0.49946587     0.14800
H4099       H  0.88688010  0.71625814  0.42935192     0.14800
C4100       C  0.87860735  0.66970101  0.42157450    -0.24200
H4101       H  0.95997580  0.73858012  0.51819808     0.05000
H4102       H  0.93805111  0.74915718  0.02579385     0.08200
H4103       H  0.95957900  0.76228447  0.49451582     0.08200
H4104       H  0.86314587  0.65476674  0.93791546     0.08200
H4105       H  0.88778871  0.66184151  0.40687817     0.08200
H4106       H  0.86965484  0.67732929  0.40611938     0.05000
C4107       C  0.62670140  0.61162764  0.45818948    -0.20800
C4108       C  0.65146504  0.62320734  0.44732343    -0.07400
C4109       C  0.65831097  0.64011022  0.42200776     0.13500
C4110       C  0.63981564  0.64297314  0.40674002    -0.20900
C4111       C  0.61474396  0.62945676  0.41593466    -0.07400
C4112       C  0.60834651  0.61456702  0.44296614     0.13500
C4113       C  0.58241424  0.60231509  0.45652815    -0.24200
H4114       H  0.62129391  0.59934671  0.47815068     0.14800
H4115       H  0.64477839  0.65487481  0.38643544     0.14800
C4116       C  0.68484998  0.65518253  0.41063148    -0.24200
H4117       H  0.58116914  0.59262001  0.47870780     0.05000
H4118       H  0.56875895  0.58827224  0.44047247     0.08200
H4119       H  0.57737713  0.61684786  0.46135683     0.08200
H4120       H  0.69109379  0.64283624  0.40013049     0.08200
H4121       H  0.69721446  0.66572931  0.43015599     0.08200
H4122       H  0.68682312  0.66885445  0.39255136     0.05000
C4123       C  0.62898661  0.51377021  0.46087876    -0.20800
C4124       C  0.65273373  0.52915038  0.44786610    -0.07400
C4125       C  0.65940199  0.52121112  0.42029985     0.13500
C4126       C  0.64161390  0.49932892  0.40566073    -0.20900
C4127       C  0.61742624  0.98548381  0.41683225    -0.07400
C4128       C  0.61135704  0.99248801  0.44524286     0.13500
C4129       C  0.58607751  0.97717279  0.46009125    -0.24200
H4130       H  0.62411965  0.01964573  0.48144545     0.14800
H4131       H  0.64622365  0.49389282  0.38382992     0.14800
C4132       C  0.68489812  0.53563570  0.40558723    -0.24200
H4133       H  0.58487926  0.98477587  0.48291590     0.05000
H4134       H  0.58258824  0.95797948  0.46387991     0.08200
H4135       H  0.57129954  0.97675594  0.44519693     0.08200
H4136       H  0.69945603  0.53880095  0.42282903     0.08200
H4137       H  0.68787300  0.55367993  0.39642362     0.08200
H4138       H  0.68712911  0.52547240  0.38576520     0.05000
C4139       C  0.79039905  0.69060872  0.44050634    -0.20800
C4140       C  0.77302200  0.68574026  0.46429424    -0.07400
C4141       C  0.77703426  0.70490610  0.48523094     0.13500
C4142       C  0.79997502  0.72695150  0.48492079    -0.20900
C4143       C  0.81879505  0.73041068  0.46394685    -0.07400
C4144       C  0.81349349  0.71274653  0.44020366     0.13500
C4145       C  0.83241190  0.71538875  0.41612289    -0.24200
H4146       H  0.78720668  0.67601503  0.42422227     0.14800
H4147       H  0.80389043  0.74072592  0.50274424     0.14800
C4148       C  0.75803680  0.70201558  0.50936334    -0.24200
H4149       H  0.82475307  0.71465140  0.39268170     0.08600
H4150       H  0.83640924  0.69983565  0.41854245     0.08200
H4151       H  0.85028127  0.73305442  0.41786550     0.08200
H4152       H  0.76517378  0.70264199  0.03365808     0.08200
H4153       H  0.74010311  0.68444336  0.50677724     0.08200
H4154       H  0.75401959  0.71756429  0.50714551     0.05000
C4155       C  0.78627005  0.59378000  0.44016966    -0.20800
C4156       C  0.77094864  0.58561405  0.46658244    -0.07400
C4157       C  0.77552541  0.57219228  0.98911156     0.13500
C4158       C  0.79799605  0.57193750  0.98846855    -0.20900
C4159       C  0.81557054  0.58436787  0.46572822    -0.07400
C4160       C  0.80848066  0.59271248  0.43914623     0.13500
C4161       C  0.82453775  0.60138434  0.41046211    -0.24200
H4162       H  0.78204849  0.60291352  0.42162756     0.14800
H4163       H  0.80279863  0.56396418  0.00783736     0.14800
C4164       C  0.75718388  0.55885265  0.01506200    -0.24200
H4165       H  0.81618560  0.60755979  0.39216940     0.05000
H4166       H  0.82662297  0.58582288  0.40107365     0.08200
H4167       H  0.84320774  0.61707950  0.41572547     0.08200
H4168       H  0.73854305  0.54605285  0.00526852     0.08200
H4169       H  0.75582699  0.57227921  0.03071153     0.08200
H4170       H  0.76289227  0.54759721  0.02936959     0.05000
C4171       C  0.97471997  0.81140922  0.07454307    -0.20800
C4172       C  0.94970642  0.79941130  0.08404885    -0.07400
C4173       C  0.94267022  0.78527159  0.11174460     0.13500
C4174       C  0.96029304  0.78139995  0.12736001    -0.20900
C4175       C  0.98471430  0.79101077  0.11591099    -0.07400
C4176       C  0.99237348  0.80738707  0.08999575     0.13500
C4177       C  0.01889806  0.82061591  0.07818274    -0.24200
H4178       H  0.98017631  0.82276732  0.05364923     0.14800
H4179       H  0.95443117  0.76956052  0.14782029     0.14800
C4180       C  0.91664543  0.77417161  0.12498808    -0.24200
H4181       H  0.02173619  0.83433678  0.05973115     0.05000
H4182       H  0.02372943  0.80709976  0.06799791     0.08200
H4183       H  0.03181726  0.83086863  0.09739495     0.08200
H4184       H  0.90301931  0.75932902  0.10969903     0.08200
H4185       H  0.91153458  0.78892834  0.12770587     0.08200
H4186       H  0.91517102  0.76562743  0.14811733     0.05000
C4187       C  0.97279604  0.66399269  0.07615835    -0.20800
C4188       C  0.94741541  0.65396535  0.08337096    -0.07400
C4189       C  0.94041684  0.66391022  0.10841554     0.13500
C4190       C  0.95876100  0.68454720  0.12420358    -0.20900
C4191       C  0.98400785  0.69607829  0.11538591    -0.07400
C4192       C  0.99122198  0.68511051  0.09156104     0.13500
C4193       C  0.51857740  0.69510682  0.08240335    -0.24200
H4194       H  0.97812067  0.65613626  0.05715155     0.14800
H4195       H  0.95299953  0.69247858  0.14265623     0.14800
C4196       C  0.91365909  0.65286350  0.11888324    -0.24200
H4197       H  0.52084221  0.68289611  0.06542487     0.05000
H4198       H  0.52970954  0.69647957  0.10318779     0.08200
H4199       H  0.52607768  0.71368030  0.07137193     0.08200
H4200       H  0.90594193  0.63281320  0.12398857     0.08200
H4201       H  0.90235028  0.65533349  0.10082618     0.08200
H4202       H  0.91194163  0.66187043  0.14026110     0.05000
C4203       C  0.54904072  0.82376319  0.27651837    -0.20800
C4204       C  0.53679358  0.81938482  0.24812849    -0.07400
C4205       C  0.52789833  0.83519157  0.23803834     0.13500
C4206       C  0.53260996  0.85589034  0.25605194    -0.20900
C4207       C  0.54641951  0.86147010  0.28372174    -0.07400
C4208       C  0.55391054  0.84445492  0.29462809     0.13500
C4209       C  0.56792045  0.84811440  0.32447234    -0.24200
H4210       H  0.55577150  0.81138741  0.28390242     0.14800
H4211       H  0.52634776  0.86836538  0.24763307     0.14800
C4212       C  0.01262822  0.82999586  0.20906574    -0.24200
H4213       H  0.57186858  0.83272553  0.32900684     0.05000
H4214       H  0.55663580  0.84861001  0.34425402     0.08200
H4215       H  0.58613510  0.86561593  0.32336892     0.08200
H4216       H  0.99551862  0.81144643  0.20950485     0.08200
H4217       H  0.02477860  0.83078047  0.18955386     0.08200
H4218       H  0.00697008  0.84419785  0.20472845     0.05000
C4219       C  0.52112361  0.69423395  0.24594323    -0.20800
C4220       C  0.53590023  0.71967595  0.25225742    -0.07400
C4221       C  0.55177399  0.72716544  0.27833167     0.13500
C4222       C  0.55503296  0.70938185  0.29464201    -0.20900
C4223       C  0.54271820  0.68426485  0.28576385    -0.07400
C4224       C  0.52418331  0.67635043  0.26249415     0.13500
C4225       C  0.50747054  0.64923178  0.25495570    -0.24200
H4226       H  0.50818005  0.68841336  0.22676615     0.14800
H4227       H  0.56838183  0.71547014  0.31338326     0.14800
C4228       C  0.06549573  0.75385416  0.28925073    -0.24200
H4229       H  0.51829805  0.64142589  0.24386942     0.05000
H4230       H  0.49836919  0.63867147  0.27645866     0.08200
H4231       H  0.49252315  0.64653586  0.23856725     0.08200
H4232       H  0.05208845  0.76065914  0.29298419     0.08200
H4233       H  0.57965612  0.76595694  0.27215559     0.08200
H4234       H  0.07525549  0.75571556  0.31147713     0.05000
C4235       C  0.72579838  0.54256806  0.12344779    -0.20800
C4236       C  0.71272424  0.51737876  0.11468380    -0.07400
C4237       C  0.69429854  0.51007433  0.09128689     0.13500
C4238       C  0.69125979  0.52838061  0.07565800    -0.20900
C4239       C  0.70616050  0.55370011  0.08258059    -0.07400
C4240       C  0.72284331  0.56075732  0.10774602     0.13500
C4241       C  0.73760481  0.58744379  0.11832010    -0.24200
H4242       H  0.73940447  0.54842242  0.14186142     0.14800
H4243       H  0.67814573  0.52301068  0.05670535     0.14800
C4244       C  0.67776758  0.48323284  0.08239545    -0.24200
H4245       H  0.74801910  0.58916099  0.13994051     0.05000
H4246       H  0.72479370  0.59482902  0.12300103     0.08200
H4247       H  0.75150148  0.59909008  0.10047820     0.08200
H4248       H  0.66865937  0.97177323  0.10127725     0.08200
H4249       H  0.68894900  0.47582429  0.07127303     0.08200
H4250       H  0.66326725  0.48103792  0.06555492     0.05000
C4251       C  0.81905965  0.54136348  0.12751631    -0.20800
C4252       C  0.80606869  0.51663551  0.11721455    -0.07400
C4253       C  0.81559117  0.50951928  0.09165494     0.13500
C4254       C  0.83670702  0.52774113  0.07581934    -0.20900
C4255       C  0.84815402  0.55281644  0.08449244    -0.07400
C4256       C  0.83982436  0.55957130  0.11137361     0.13500
C4257       C  0.85284859  0.58586523  0.12337666    -0.24200
H4258       H  0.81215179  0.54684396  0.14739701     0.14800
H4259       H  0.84341612  0.52261920  0.05542558     0.14800
C4260       C  0.80371116  0.48293362  0.08076685    -0.24200
H4261       H  0.84466580  0.58741843  0.14564963     0.05000
H4262       H  0.85132362  0.59864365  0.10662666     0.08200
H4263       H  0.87274300  0.59184500  0.12743899     0.08200
H4264       H  0.78503959  0.47697235  0.07091916     0.08200
H4265       H  0.80093337  0.97003838  0.09926505     0.08200
H4266       H  0.81498289  0.48061976  0.06232625     0.05000
C4267       C  0.66950526  0.97900788  0.23993141    -0.20800
C4268       C  0.68338896  0.96813016  0.25021200    -0.07400
C4269       C  0.67711690  0.95502143  0.27860627     0.13500
C4270       C  0.65558162  0.95084949  0.29434414    -0.20900
C4271       C  0.63985563  0.95916613  0.28233686    -0.07400
C4272       C  0.64768445  0.97465023  0.25551270     0.13500
C4273       C  0.63320152  0.98632383  0.24258518    -0.24200
H4274       H  0.67473738  0.98945026  0.21837516     0.14800
H4275       H  0.65039318  0.93978365  0.31538417     0.14800
C4276       C  0.69303645  0.94532964  0.29247755    -0.24200
H4277       H  0.64337863  0.99940309  0.22327378     0.05000
H4278       H  0.63005528  0.99701644  0.26095905     0.08200
H4279       H  0.61510948  0.97178404  0.23320673     0.08200
H4280       H  0.71176721  0.45889244  0.29450397     0.08200
H4281       H  0.69286707  0.93059781  0.27774411     0.08200
H4282       H  0.68626324  0.93708368  0.31581605     0.05000
C4283       C  0.80504841  0.97676151  0.24444295    -0.20800
C4284       C  0.77961283  0.96177568  0.25123633    -0.07400
C4285       C  0.77218148  0.94463803  0.27613521     0.13500
C4286       C  0.79019103  0.94158616  0.29198932    -0.20900
C4287       C  0.81546027  0.95490501  0.28343894    -0.07400
C4288       C  0.82313446  0.97348252  0.26008682     0.13500
C4289       C  0.85018257  0.98992009  0.25141629    -0.24200
H4290       H  0.81068175  0.99010910  0.22558039     0.14800
H4291       H  0.78422089  0.92771336  0.31025812     0.14800
C4292       C  0.74533672  0.92961350  0.28638757    -0.24200
H4293       H  0.85272385  0.00467583  0.23469192     0.05000
H4294       H  0.85763409  0.97881120  0.24025191     0.08200
H4295       H  0.86118122  0.99917815  0.27241486     0.08200
H4296       H  0.73379755  0.91648950  0.26804648     0.08200
H4297       H  0.73654111  0.43884595  0.29037522     0.08200
H4298       H  0.74227923  0.41515366  0.30537308     0.05000
C4299       C  0.62281073  0.85537148  0.11003767    -0.20800
C4300       C  0.60447709  0.85101522  0.13219657    -0.07400
C4301       C  0.60730567  0.87049961  0.15167323     0.13500
C4302       C  0.63008308  0.89280412  0.15166267    -0.20900
C4303       C  0.64998452  0.89574195  0.13286826    -0.07400
C4304       C  0.64586734  0.87744511  0.11045332     0.13500
C4305       C  0.66639463  0.87979277  0.08927039    -0.24200
H4306       H  0.62018178  0.84041748  0.09474040     0.14800
H4307       H  0.63307465  0.90715965  0.16823353     0.14800
C4308       C  0.58668431  0.86733334  0.17330955    -0.24200
H4309       H  0.66000075  0.86336198  0.07395372     0.05000
H4310       H  0.68219355  0.88136702  0.10317366     0.08200
H4311       H  0.67290561  0.89650513  0.07430287     0.08200
H4312       H  0.58245184  0.85237368  0.19046000     0.08200
H4313       H  0.56964987  0.86247312  0.15973170     0.08200
H4314       H  0.59180913  0.88467906  0.18629898     0.05000
C4315       C  0.84585434  0.78647797  0.11183380    -0.20800
C4316       C  0.85046133  0.79950635  0.08387338    -0.07400
C4317       C  0.83572214  0.81008315  0.07548350     0.13500
C4318       C  0.81515802  0.80542435  0.09407157    -0.20900
C4319       C  0.80900381  0.79043423  0.12089882    -0.07400
C4320       C  0.82554244  0.78201887  0.13076920     0.13500
C4321       C  0.82162390  0.76735500  0.16024455    -0.24200
H4322       H  0.85766147  0.77880150  0.11817209     0.14800
H4323       H  0.80317512  0.81261881  0.08674202     0.14800
C4324       C  0.84077328  0.82498198  0.04601582    -0.24200
H4325       H  0.83669110  0.76278500  0.16402081     0.05000
H4326       H  0.80376971  0.74949474  0.15922929     0.08200
H4327       H  0.82161333  0.77844802  0.18042455     0.08200
H4328       H  0.83962047  0.81340840  0.02578851     0.08200
H4329       H  0.85968890  0.84159316  0.04685477     0.08200
H4330       H  0.82712206  0.83150450  0.04261589     0.05000
C4331       C  0.71683433  0.65725332  0.10911310    -0.20800
C4332       C  0.70417094  0.65295991  0.08098521    -0.07400
C4333       C  0.69520641  0.66891292  0.07167147     0.13500
C4334       C  0.70036974  0.68964254  0.08998936    -0.20900
C4335       C  0.71451714  0.69505658  0.11736754    -0.07400
C4336       C  0.72203332  0.67788828  0.12758464     0.13500
C4337       C  0.73634461  0.68128142  0.15711507    -0.24200
H4338       H  0.72360204  0.64480593  0.11603923     0.14800
H4339       H  0.69405750  0.70221077  0.08210358     0.14800
C4340       C  0.68151856  0.66499510  0.04154112    -0.24200
H4341       H  0.74030351  0.66583533  0.16111992     0.05000
H4342       H  0.72527023  0.68162793  0.17723504     0.08200
H4343       H  0.75456202  0.69877738  0.15596660     0.08200
H4344       H  0.66406398  0.64672881  0.04198745     0.08200
H4345       H  0.69341667  0.66542568  0.02193413     0.08200
H4346       H  0.67643237  0.67963354  0.03736188     0.05000
C4347       C  0.79310136  0.84701797  0.29603659    -0.20800
C4348       C  0.81774955  0.86098205  0.28497733    -0.07400
C4349       C  0.82529812  0.85140334  0.25978538     0.13500
C4350       C  0.80758162  0.82940574  0.24515257    -0.20900
C4351       C  0.78250766  0.81704627  0.25447254    -0.07400
C4352       C  0.77539677  0.82540794  0.28099758     0.13500
C4353       C  0.74910959  0.81164892  0.29356858    -0.24200
H4354       H  0.78715176  0.85372245  0.31565550     0.14800
H4355       H  0.81299012  0.82276726  0.22494444     0.14800
C4356       C  0.85173034  0.86420892  0.24767719    -0.24200
H4357       H  0.74726361  0.81986290  0.31558196     0.05000
H4358       H  0.74377453  0.79198341  0.29824459     0.08200
H4359       H  0.73589795  0.81236529  0.27685582     0.08200
H4360       H  0.86481506  0.86722195  0.26688875     0.08200
H4361       H  0.85640435  0.88226257  0.23674964     0.08200
H4362       H  0.85447523  0.85293330  0.22973658     0.05000
C4363       C  0.65515375  0.70154380  0.29594366    -0.20800
C4364       C  0.63761003  0.67948755  0.28113220    -0.07400
C4365       C  0.64423823  0.67358271  0.25196518     0.13500
C4366       C  0.66658233  0.69102810  0.23735866    -0.20900
C4367       C  0.68246692  0.71404440  0.25095687    -0.07400
C4368       C  0.67737677  0.71882912  0.28120218     0.13500
C4369       C  0.69536679  0.74227928  0.29786567    -0.24200
H4370       H  0.65108266  0.70596638  0.31873816     0.14800
H4371       H  0.67090943  0.68735261  0.21425753     0.14800
C4372       C  0.62796358  0.64941322  0.23544132    -0.24200
H4373       H  0.68900984  0.74270599  0.32183964     0.05000
H4374       H  0.69731796  0.75883107  0.28536813     0.08200
H4375       H  0.71386578  0.74342994  0.29923068     0.08200
H4376       H  0.61021492  0.64834772  0.22835324     0.08200
H4377       H  0.62418682  0.63347872  0.25078867     0.08200
H4378       H  0.63704024  0.64766230  0.21406775     0.05000
C4379       C  0.73412602  0.87809831  0.11299159    -0.20800
C4380       C  0.74525606  0.89520784  0.13709234    -0.07400
C4381       C  0.75940581  0.89104079  0.15951490     0.13500
C4382       C  0.75914687  0.86827747  0.15987197    -0.20900
C4383       C  0.74531360  0.84975616  0.13813620    -0.07400
C4384       C  0.73404531  0.85531017  0.11320373     0.13500
C4385       C  0.72016278  0.83649886  0.08834821    -0.24200
H4386       H  0.72357615  0.88153684  0.09559606     0.14800
H4387       H  0.76830700  0.86420965  0.17852453     0.14800
C4388       C  0.77393158  0.91017347  0.18389086    -0.24200
H4389       H  0.71187513  0.84361936  0.07113573     0.05000
H4390       H  0.70487042  0.81933487  0.09890757     0.08200
H4391       H  0.73313871  0.83194134  0.07588651     0.08200
H4392       H  0.76112826  0.91287012  0.19934682     0.08200
H4393       H  0.78708584  0.92814361  0.17259188     0.08200
H4394       H  0.78493710  0.90440391  0.19856053     0.05000
C4395       C  0.64926616  0.77031104  0.11356528    -0.20800
C4396       C  0.65194223  0.75492330  0.13528445    -0.07400
C4397       C  0.63106175  0.73786333  0.15288103     0.13500
C4398       C  0.60892812  0.73889414  0.15123888    -0.20900
C4399       C  0.60743357  0.75678422  0.13276840    -0.07400
C4400       C  0.62734133  0.77182559  0.11250899     0.13500
C4401       C  0.62658571  0.79132063  0.09231324    -0.24200
H4402       H  0.66524193  0.78312403  0.09983244     0.14800
H4403       H  0.59345359  0.72715642  0.16641892     0.14800
C4404       C  0.63239280  0.71923176  0.17422803    -0.24200
H4405       H  0.64404435  0.80197721  0.07864006     0.05000
H4406       H  0.62417989  0.80468523  0.10699201     0.08200
H4407       H  0.61081579  0.78233372  0.07588682     0.08200
H4408       H  0.64588571  0.72881137  0.19312059     0.08200
H4409       H  0.63826260  0.70766582  0.16087991     0.08200
H4410       H  0.61402227  0.70660524  0.18511047     0.05000
Fe4411     Fe  0.71549086  0.78390039  0.69738781     1.65800
Fe4412     Fe  0.74824701  0.75326254  0.68935315     1.73200
Fe4413     Fe  0.73009460  0.77292949  0.62474247     1.54400
O4414       O  0.69283791  0.76356370  0.62405146    -0.82200
O4415       O  0.77958409  0.77249878  0.66208928    -0.80500
O4416       O  0.68317915  0.76790975  0.67253743    -0.84700
O4417       O  0.72957276  0.81641610  0.67228208    -0.79500
O4418       O  0.71890907  0.73586481  0.61796913    -0.81300
O4419       O  0.76638081  0.78059893  0.72274915    -0.84100
C4420       C  0.73872222  0.82416225  0.64552631     0.96700
C4421       C  0.67734305  0.76204987  0.64452572     1.04100
O4422       O  0.73131765  0.77004844  0.67042536    -1.13000
O4423       O  0.71845545  0.73134152  0.71845320    -0.75500
O4424       O  0.69918324  0.75323572  0.72595844    -0.79000
O4425       O  0.74114640  0.81048275  0.62556927    -0.79700
C4426       C  0.70145198  0.73428126  0.73086643     0.95600
O4427       O  0.74587278  0.80164284  0.72534453    -0.77600
O4428       O  0.73303029  0.72422201  0.65818915    -0.82800
C4429       C  0.78373132  0.78148410  0.63490931     0.98200
C4430       C  0.72233897  0.71979393  0.63209313     1.04100
O4431       O  0.76703548  0.78257914  0.61900151    -0.78500
C4432       C  0.76360178  0.79821882  0.73333788     1.02400
Fe4433     Fe  0.71302826  0.93009290  0.69444372     1.65800
Fe4434     Fe  0.74746258  0.49308118  0.68639065     1.73200
Fe4435     Fe  0.72787298  0.95549190  0.62236827     1.54400
O4436       O  0.74155349  0.93087744  0.62390628    -0.82200
O4437       O  0.73280487  0.50754846  0.65479429    -0.80500
O4438       O  0.72447905  0.91016059  0.66772058    -0.84700
O4439       O  0.68003961  0.91643135  0.67145608    -0.79500
O4440       O  0.76390746  0.98402041  0.61546885    -0.81300
O4441       O  0.71709132  0.98612137  0.71497587    -0.84100
C4442       C  0.67509315  0.91428233  0.64285850     0.96700
C4443       C  0.73684236  0.91342087  0.64297903     1.04100
O4444       O  0.72931723  0.95956897  0.66777292    -1.13000
O4445       O  0.76463963  0.48265263  0.72004531    -0.75500
O4446       O  0.74424511  0.94102180  0.72008520    -0.79000
O4447       O  0.69139897  0.92630630  0.62222164    -0.79700
C4448       C  0.76123258  0.96177435  0.72977070     0.95600
O4449       O  0.69956462  0.94567219  0.72518255    -0.77600
O4450       O  0.77879038  0.50413550  0.65946697    -0.82800
C4451       C  0.72055347  0.50073357  0.62965069     0.98200
C4452       C  0.78216517  0.50007294  0.63158540     1.04100
O4453       O  0.71436820  0.97983533  0.61664165    -0.78500
C4454       C  0.70150340  0.96674403  0.72947756     1.02400
Fe4455     Fe  0.57065915  0.78582043  0.69387370     1.65800
Fe4456     Fe  0.00821029  0.75462735  0.68556510     1.73200
Fe4457     Fe  0.54550579  0.77329737  0.62135585     1.54400
O4458       O  0.57043632  0.81103888  0.62148340    -0.82200
O4459       O  0.99522029  0.72484722  0.65567890    -0.80500
O4460       O  0.58857711  0.81754579  0.66764611    -0.84700
O4461       O  0.58721583  0.76916758  0.67030979    -0.79500
O4462       O  0.51769708  0.78198085  0.61458546    -0.81300
O4463       O  0.51558692  0.73394483  0.71693591    -0.84100
C4464       C  0.58811527  0.76383347  0.64223780     0.96700
C4465       C  0.58617920  0.82506443  0.64128120     1.04100
O4466       O  0.54120853  0.77121067  0.66705499    -1.13000
O4467       O  0.51624293  0.78265977  0.71815509    -0.75500
O4468       O  0.55768841  0.80414435  0.72057352    -0.79000
O4469       O  0.57437325  0.76520462  0.62145157    -0.79700
C4470       C  0.53639965  0.80066338  0.72808501     0.95600
O4471       O  0.55652466  0.75629240  0.72384548    -0.77600
O4472       O  0.99557304  0.77273379  0.65703769    -0.82800
C4473       C  0.00154056  0.72011153  0.62960420     0.98200
C4474       C  0.00082731  0.78174996  0.62985248     1.04100
O4475       O  0.52067264  0.73591255  0.61567913    -0.78500
C4476       C  0.53549574  0.73774633  0.73016274     1.02400
Fe4477     Fe  0.73955721  0.62077330  0.52468312     1.65800
Fe4478     Fe  0.67638457  0.58840097  0.51786881     1.73200
Fe4479     Fe  0.71378838  0.60777694  0.95272270     1.54400
O4480       O  0.74180410  0.64481594  0.95224699    -0.82200
O4481       O  0.66446875  0.55733592  0.99008488    -0.80500
O4482       O  0.75577880  0.65308657  0.49985064    -0.84700
O4483       O  0.75677386  0.60584460  0.49924371    -0.79500
O4484       O  0.68834609  0.61988577  0.94730986    -0.81300
O4485       O  0.68584773  0.56969063  0.55050264    -0.84100
C4486       C  0.75454405  0.59602917  0.97289146     0.96700
C4487       C  0.75544822  0.65980936  0.97299337     1.04100
O4488       O  0.70978724  0.60552106  0.49831133    -1.13000
O4489       O  0.68461934  0.61780344  0.54765865    -0.75500
O4490       O  0.72584631  0.63730236  0.55348688    -0.79000
O4491       O  0.73925922  0.59516144  0.95273315    -0.79700
C4492       C  0.70467271  0.63485164  0.55933094     0.95600
O4493       O  0.72716934  0.59053631  0.55308592    -0.77600
O4494       O  0.66228273  0.60392980  0.98731953    -0.82800
C4495       C  0.66923965  0.55407703  0.96237626     0.98200
C4496       C  0.66861769  0.61556945  0.96162078     1.04100
O4497       O  0.68632085  0.57142972  0.94651229    -0.78500
C4498       C  0.70626600  0.57264861  0.56118701     1.02400
Fe4499     Fe  0.88064919  0.61913039  0.52584265     1.65800
Fe4500     Fe  0.91353457  0.58855142  0.52057155     1.73200
Fe4501     Fe  0.89515873  0.60644441  0.95480575     1.54400
O4502       O  0.85735752  0.59428567  0.95350982    -0.82200
O4503       O  0.94384057  0.60629478  0.99311618    -0.80500
O4504       O  0.84820983  0.60146910  0.50124815    -0.84700
O4505       O  0.89416625  0.65060853  0.49926187    -0.79500
O4506       O  0.88634414  0.56995000  0.94951272    -0.81300
O4507       O  0.93173577  0.61701686  0.55247006    -0.84100
C4508       C  0.90313144  0.65802760  0.97301323     0.96700
C4509       C  0.84206133  0.59413116  0.97328483     1.04100
O4510       O  0.89643116  0.60457639  0.50018837    -1.13000
O4511       O  0.88425178  0.56777313  0.55068972    -0.75500
O4512       O  0.86505055  0.58984957  0.55633910    -0.79000
O4513       O  0.90409516  0.64341528  0.95327827    -0.79700
C4514       C  0.86756127  0.57129791  0.56290401     0.95600
O4515       O  0.91140457  0.63828224  0.55292109    -0.77600
O4516       O  0.89685301  0.55801346  0.99270456    -0.82800
C4517       C  0.94872880  0.61675740  0.96670559     0.98200
C4518       C  0.88801605  0.55364155  0.96553249     1.04100
O4519       O  0.93257067  0.61846215  0.95053801    -0.78500
C4520       C  0.92911187  0.63506696  0.56169090     1.02400
Fe4521     Fe  0.88270259  0.76411002  0.52642393     1.65800
Fe4522     Fe  0.91416462  0.82697430  0.51929006     1.73200
Fe4523     Fe  0.89575187  0.79071306  0.95496370     1.54400
O4524       O  0.90263105  0.76119962  0.95493688    -0.82200
O4525       O  0.89529673  0.84004754  0.99285586    -0.80500
O4526       O  0.90181366  0.74972189  0.50385423    -0.84700
O4527       O  0.85216050  0.74526591  0.49823673    -0.79500
O4528       O  0.93341220  0.81395609  0.94974505    -0.81300
O4529       O  0.88671789  0.81746275  0.55284724    -0.84100
C4530       C  0.84434641  0.74916573  0.97341655     0.96700
C4531       C  0.90600231  0.74877045  0.97585972     1.04100
O4532       O  0.89746756  0.79384630  0.50006968    -1.13000
O4533       O  0.93554564  0.81841366  0.54795366    -0.75500
O4534       O  0.91093859  0.77827222  0.55836684    -0.79000
O4535       O  0.85777334  0.76688639  0.95513660    -0.79700
C4536       C  0.93073069  0.79873758  0.56256477     0.95600
O4537       O  0.86263757  0.77612013  0.55160691    -0.77600
O4538       O  0.94362110  0.84099295  0.98822420    -0.82800
C4539       C  0.88792102  0.83612443  0.96501135     0.98200
C4540       C  0.94902467  0.83354775  0.96349063     1.04100
O4541       O  0.88866349  0.81962398  0.94843445    -0.78500
C4542       C  0.86752383  0.79738883  0.56119480     1.02400
Fe4543     Fe  0.90454913  0.95349551  0.85912557     1.65800
Fe4544     Fe  0.84130838  0.92115645  0.85354710     1.73200
Fe4545     Fe  0.87787415  0.93927881  0.78741046     1.54400
O4546       O  0.90350906  0.97720018  0.78600495    -0.82200
O4547       O  0.82820315  0.89042953  0.82493358    -0.80500
O4548       O  0.92064065  0.98508927  0.83277745    -0.84700
O4549       O  0.92116814  0.93748492  0.83476943    -0.79500
O4550       O  0.85041069  0.94855275  0.78151332    -0.81300
O4551       O  0.85090186  0.90197397  0.88500680    -0.84100
C4552       C  0.92024450  0.92950800  0.80761518     0.96700
C4553       C  0.91847073  0.99205836  0.80596235     1.04100
O4554       O  0.87449629  0.93793382  0.83330660    -1.13000
O4555       O  0.85014198  0.95018620  0.88429705    -0.75500
O4556       O  0.89157735  0.97113782  0.88697484    -0.79000
O4557       O  0.90571227  0.92969724  0.78707529    -0.79700
C4558       C  0.87041933  0.96799904  0.89443885     0.95600
O4559       O  0.89213830  0.92411229  0.88892374    -0.77600
O4560       O  0.82746398  0.93781608  0.82461944    -0.82800
C4561       C  0.83407187  0.88567528  0.79856169     0.98200
C4562       C  0.83244840  0.94700807  0.79750826     1.04100
O4563       O  0.85236709  0.90191007  0.78290069    -0.78500
C4564       C  0.87136577  0.90576526  0.89649223     1.02400
Fe4565     Fe  0.54871103  0.95150222  0.86268200     1.65800
Fe4566     Fe  0.58149650  0.92097632  0.85403746     1.73200
Fe4567     Fe  0.56094580  0.93865489  0.78981276     1.54400
O4568       O  0.52332796  0.92679804  0.79077677    -0.82200
O4569       O  0.61116483  0.93867710  0.82389265    -0.80500
O4570       O  0.51618110  0.93618888  0.83809666    -0.84700
O4571       O  0.56342900  0.98388542  0.83776565    -0.79500
O4572       O  0.55180458  0.90210431  0.78374762    -0.81300
O4573       O  0.60157930  0.94989143  0.88460082    -0.84100
C4574       C  0.57011293  0.99038031  0.80998779     0.96700
C4575       C  0.50895439  0.92749164  0.81123996     1.04100
O4576       O  0.56371816  0.93702182  0.83546698    -1.13000
O4577       O  0.55373157  0.90090167  0.88636615    -0.75500
O4578       O  0.53226400  0.92091295  0.89069540    -0.79000
O4579       O  0.56974824  0.97558661  0.78946808    -0.79700
C4580       C  0.53607552  0.90326309  0.89779818     0.95600
O4581       O  0.57920201  0.96876105  0.89084312    -0.77600
O4582       O  0.56410501  0.89038948  0.82560901    -0.82800
C4583       C  0.61501782  0.94922687  0.79760574     0.98200
C4584       C  0.55411502  0.88586553  0.79909868     1.04100
O4585       O  0.59808671  0.95068418  0.78295863    -0.78500
C4586       C  0.59809423  0.96661298  0.89664619     1.02400
Fe4587     Fe  0.54549613  0.59571647  0.86030052     1.65800
Fe4588     Fe  0.57914084  0.65882959  0.85264586     1.73200
Fe4589     Fe  0.55776449  0.62163574  0.78782639     1.54400
O4590       O  0.56725985  0.59387588  0.78656499    -0.82200
O4591       O  0.56226083  0.67321713  0.82451851    -0.80500
O4592       O  0.55906583  0.57760322  0.83414700    -0.84700
O4593       O  0.51256313  0.57997352  0.83649921    -0.79500
O4594       O  0.59501682  0.64712008  0.78053854    -0.81300
O4595       O  0.55143599  0.65144659  0.88503028    -0.84100
C4596       C  0.50531521  0.58130230  0.80954434     0.96700
C4597       C  0.56659491  0.57856066  0.80662881     1.04100
O4598       O  0.56081905  0.62542066  0.83355046    -1.13000
O4599       O  0.59854938  0.64875841  0.88321490    -0.75500
O4600       O  0.57638885  0.60757899  0.88757564    -0.79000
O4601       O  0.51999908  0.59564369  0.78875206    -0.79700
C4602       C  0.59509620  0.62827711  0.89438527     0.95600
O4603       O  0.53018740  0.61021980  0.88980145    -0.77600
O4604       O  0.60901663  0.67049233  0.82261607    -0.82800
C4605       C  0.55084864  0.66736660  0.79881546     0.98200
C4606       C  0.61245234  0.66463050  0.79559973     1.04100
O4607       O  0.54783833  0.64871839  0.78331629    -0.78500
C4608       C  0.53413783  0.63163822  0.89706945     1.02400
C4609       C  0.59162853  0.55879254  0.81775993    -0.20800
C4610       C  0.57418573  0.56025431  0.79848096    -0.07400
C4611       C  0.56018600  0.54082967  0.77752809     0.13500
C4612       C  0.56208930  0.51915957  0.77873920    -0.20900
C4613       C  0.57694970  0.51641606  0.80116111    -0.07400
C4614       C  0.59311269  0.53698373  0.81951310     0.13500
C4615       C  0.61117492  0.53566231  0.84183270    -0.24200
H4616       H  0.60254845  0.57397158  0.83348688     0.14800
H4617       H  0.54876715  0.00306494  0.76571118     0.14800
C4618       C  0.54146581  0.54187646  0.75621454    -0.24200
H4619       H  0.62318053  0.55388580  0.85310125     0.05000
H4620       H  0.62347422  0.53030006  0.82918702     0.08200
H4621       H  0.60108342  0.52188488  0.86046735     0.08200
H4622       H  0.55108992  0.55813107  0.74041221     0.08200
H4623       H  0.52717573  0.54362860  0.76995818     0.08200
H4624       H  0.53173668  0.52485027  0.74184282     0.05000
C4625       C  0.93824246  0.53560852  0.82284319    -0.20800
C4626       C  0.93478796  0.51859498  0.79932649    -0.07400
C4627       C  0.95148167  0.52661552  0.77392218     0.13500
C4628       C  0.97399178  0.54932262  0.77608200    -0.20900
C4629       C  0.97943741  0.56412889  0.80268540    -0.07400
C4630       C  0.96034353  0.55845829  0.82472329     0.13500
C4631       C  0.96349618  0.57595436  0.85082891    -0.24200
H4632       H  0.92463422  0.52998029  0.84145970     0.14800
H4633       H  0.98820663  0.55429339  0.75838902     0.14800
C4634       C  0.94638259  0.51073841  0.74562535    -0.24200
H4635       H  0.94599059  0.56920301  0.86443680     0.05000
H4636       H  0.96857868  0.59454235  0.84120479     0.08200
H4637       H  0.97813787  0.57779334  0.86708501     0.08200
H4638       H  0.92837585  0.00807745  0.73443432     0.08200
H4639       H  0.94495030  0.99366607  0.75093261     0.08200
H4640       H  0.96162113  0.51968594  0.72821105     0.05000
C4641       C  0.94085206  0.90600048  0.82321994    -0.20800
C4642       C  0.93781277  0.92056195  0.80054148    -0.07400
C4643       C  0.95540133  0.93095917  0.77620760     0.13500
C4644       C  0.97749384  0.92980878  0.77784518    -0.20900
C4645       C  0.98222731  0.91884514  0.80347026    -0.07400
C4646       C  0.96295797  0.90502025  0.82501956     0.13500
C4647       C  0.96600867  0.89004300  0.85053599    -0.24200
H4648       H  0.92684566  0.89725954  0.84125391     0.14800
H4649       H  0.99219375  0.93992174  0.76098864     0.14800
C4650       C  0.95223505  0.94549585  0.75042390    -0.24200
H4651       H  0.94855101  0.87939253  0.86420623     0.05000
H4652       H  0.48013724  0.90037586  0.86490465     0.08200
H4653       H  0.97088625  0.87653945  0.84032698     0.08200
H4654       H  0.95146339  0.96158291  0.76030111     0.08200
H4655       H  0.93474469  0.93341857  0.73772866     0.08200
H4656       H  0.96796236  0.95268998  0.73360115     0.05000
C4657       C  0.89143096  0.87752905  0.96007714    -0.20800
C4658       C  0.87966522  0.85256499  0.95070702    -0.07400
C4659       C  0.86176872  0.84457275  0.92669974     0.13500
C4660       C  0.85790805  0.86222647  0.91093055    -0.20900
C4661       C  0.87167363  0.88755878  0.91828904    -0.07400
C4662       C  0.88779562  0.89517159  0.94410080     0.13500
C4663       C  0.90128323  0.92183721  0.95494714    -0.24200
H4664       H  0.90465419  0.88361054  0.97896535     0.14800
H4665       H  0.84520899  0.85642135  0.89149253     0.14800
C4666       C  0.84666674  0.81760787  0.91747939    -0.24200
H4667       H  0.91133933  0.92388755  0.97697805     0.05000
H4668       H  0.88767669  0.92834236  0.95898385     0.08200
H4669       H  0.91534164  0.93400559  0.93755858     0.08200
H4670       H  0.83715355  0.80600530  0.93816510     0.08200
H4671       H  0.85883259  0.81122942  0.90668414     0.08200
H4672       H  0.83212956  0.81464780  0.90028621     0.05000
C4673       C  0.48856546  0.87343552  0.96140581    -0.20800
C4674       C  0.97410437  0.84942101  0.94946058    -0.07400
C4675       C  0.98371865  0.84181113  0.92433058     0.13500
C4676       C  0.00554425  0.85958555  0.90916852    -0.20900
C4677       C  0.51810015  0.88426420  0.91917225    -0.07400
C4678       C  0.51014915  0.89110467  0.94622259     0.13500
C4679       C  0.52436687  0.91703693  0.95925515    -0.24200
H4680       H  0.48205757  0.87927554  0.98132123     0.14800
H4681       H  0.01211310  0.85433651  0.88874410     0.14800
C4682       C  0.97118507  0.81535943  0.91281011    -0.24200
H4683       H  0.51630921  0.91864735  0.98159253     0.05000
H4684       H  0.52407214  0.93081104  0.94306586     0.08200
H4685       H  0.54387787  0.92168235  0.96354193     0.08200
H4686       H  0.95296256  0.81033183  0.90221663     0.08200
H4687       H  0.96852331  0.80249063  0.93227114     0.08200
H4688       H  0.98253883  0.81273699  0.89475990     0.05000
C4689       C  0.00553871  0.64676489  0.91360322    -0.20800
C4690       C  0.51672310  0.63291129  0.91935155    -0.07400
C4691       C  0.50871470  0.61763538  0.94605370     0.13500
C4692       C  0.48757552  0.61432617  0.96202602    -0.20900
C4693       C  0.97375724  0.62529230  0.95322452    -0.07400
C4694       C  0.98433521  0.64366094  0.92960216     0.13500
C4695       C  0.97345124  0.65990550  0.92085846    -0.24200
H4696       H  0.01281741  0.65966773  0.89425262     0.14800
H4697       H  0.48072759  0.60147400  0.98144842     0.14800
C4698       C  0.52249004  0.60495101  0.95803912    -0.24200
H4699       H  0.98560841  0.67469516  0.90414310     0.05000
H4700       H  0.97142114  0.66912750  0.94182985     0.08200
H4701       H  0.95507436  0.64870254  0.90964469     0.08200
H4702       H  0.54213250  0.61924848  0.96235952     0.08200
H4703       H  0.52172377  0.59105337  0.94127542     0.08200
H4704       H  0.51444081  0.59498515  0.98021247     0.05000
C4705       C  0.88409513  0.99188240  0.94277909    -0.20800
C4706       C  0.87022585  0.98657561  0.91549108    -0.07400
C4707       C  0.86048792  0.00190978  0.90637926     0.13500
C4708       C  0.86558387  0.52289119  0.92381343    -0.20900
C4709       C  0.87997955  0.52894273  0.95102463    -0.07400
C4710       C  0.88803363  0.51233294  0.96169089     0.13500
C4711       C  0.90323608  0.51694411  0.99068819    -0.24200
H4712       H  0.89166610  0.98003918  0.94935482     0.14800
H4713       H  0.85903649  0.53517278  0.91552850     0.14800
C4714       C  0.84611810  0.99725333  0.87666865    -0.24200
H4715       H  0.90802525  0.50209062  0.99487120     0.05000
H4716       H  0.89245633  0.51731354  0.01111817     0.08200
H4717       H  0.92102739  0.53482300  0.98862046     0.08200
H4718       H  0.82897087  0.97875265  0.87768490     0.08200
H4719       H  0.85781565  0.99777873  0.85674775     0.08200
H4720       H  0.84046591  0.01148379  0.87253999     0.05000
C4721       C  0.92832114  0.70272773  0.98353623    -0.20800
C4722       C  0.91079903  0.68384994  0.96455792    -0.07400
C4723       C  0.89672913  0.68930451  0.94350830     0.13500
C4724       C  0.89839577  0.71270576  0.94450868    -0.20900
C4725       C  0.91295568  0.73009785  0.96701528    -0.07400
C4726       C  0.92954584  0.72591113  0.98511149     0.13500
C4727       C  0.94787755  0.74544418  0.00680290    -0.24200
H4728       H  0.93944946  0.69854996  0.99919277     0.14800
H4729       H  0.88593435  0.71616624  0.93041362     0.14800
C4730       C  0.87756202  0.66955200  0.92303381    -0.24200
H4731       H  0.96037150  0.73948163  0.01761722     0.05000
H4732       H  0.93759955  0.74820047  0.52618085     0.08200
H4733       H  0.95966908  0.76293567  0.99373079     0.08200
H4734       H  0.86383691  0.65486498  0.43601692     0.08200
H4735       H  0.88650135  0.66166558  0.90795444     0.08200
H4736       H  0.86818726  0.67695950  0.90795538     0.05000
C4737       C  0.62605121  0.60972899  0.95669395    -0.20800
C4738       C  0.65111790  0.62258824  0.94696576    -0.07400
C4739       C  0.65796912  0.64008178  0.92232456     0.13500
C4740       C  0.63935820  0.64266561  0.90687602    -0.20900
C4741       C  0.61412144  0.62809288  0.91500094    -0.07400
C4742       C  0.60753053  0.61213118  0.94106053     0.13500
C4743       C  0.58110056  0.59785982  0.95299592    -0.24200
H4744       H  0.62056165  0.59675332  0.97594185     0.14800
H4745       H  0.64442026  0.65523032  0.88722300     0.14800
C4746       C  0.68464629  0.65606207  0.91185971    -0.24200
H4747       H  0.57971212  0.58768011  0.97480552     0.05000
H4748       H  0.56879710  0.58389511  0.93585799     0.08200
H4749       H  0.57436697  0.61108000  0.95793753     0.08200
H4750       H  0.69163720  0.64438793  0.90116895     0.08200
H4751       H  0.69644795  0.66637794  0.93188983     0.08200
H4752       H  0.68653859  0.66996836  0.89417078     0.05000
C4753       C  0.63021276  0.51301757  0.96140343    -0.20800
C4754       C  0.65328277  0.52946042  0.94742950    -0.07400
C4755       C  0.65946175  0.52258437  0.91864866     0.13500
C4756       C  0.64178982  0.50070174  0.90396758    -0.20900
C4757       C  0.61739545  0.98560803  0.91673586    -0.07400
C4758       C  0.61128843  0.99265207  0.94508422     0.13500
C4759       C  0.58603064  0.97729644  0.95998475    -0.24200
H4760       H  0.62394464  0.01987880  0.98116119     0.14800
H4761       H  0.64592973  0.49605800  0.88130731     0.14800
C4762       C  0.68422865  0.53815544  0.90257246    -0.24200
H4763       H  0.58483010  0.98491496  0.98279552     0.05000
H4764       H  0.58259146  0.95812360  0.96380866     0.08200
H4765       H  0.57121057  0.97681856  0.94511584     0.08200
H4766       H  0.69966106  0.54160110  0.91851670     0.08200
H4767       H  0.68604934  0.55605205  0.89461950     0.08200
H4768       H  0.68616890  0.52874416  0.88172501     0.05000
C4769       C  0.79055629  0.69089639  0.94152657    -0.20800
C4770       C  0.77310434  0.68596513  0.96522584    -0.07400
C4771       C  0.77694126  0.70509954  0.98610925     0.13500
C4772       C  0.79981196  0.72722975  0.98582537    -0.20900
C4773       C  0.81870954  0.73078791  0.96491154    -0.07400
C4774       C  0.81356969  0.71310011  0.94124440     0.13500
C4775       C  0.83258063  0.71575556  0.91728763    -0.24200
H4776       H  0.78748435  0.67630905  0.92529073     0.14800
H4777       H  0.80360669  0.74101101  0.00359931     0.14800
C4778       C  0.75780446  0.70211755  0.01008791    -0.24200
H4779       H  0.82496931  0.71492868  0.89379459     0.08600
H4780       H  0.83662906  0.70024644  0.91985586     0.08200
H4781       H  0.85042124  0.73344422  0.91900959     0.08200
H4782       H  0.76547617  0.70246130  0.53286956     0.08200
H4783       H  0.73992924  0.68448198  0.00745936     0.08200
H4784       H  0.75368258  0.71758749  0.00773051     0.05000
C4785       C  0.78650708  0.59422446  0.93980658    -0.20800
C4786       C  0.77113985  0.58589533  0.96618682    -0.07400
C4787       C  0.77539708  0.57210252  0.48971008     0.13500
C4788       C  0.79787353  0.57185925  0.48913961    -0.20900
C4789       C  0.81570661  0.58456640  0.96513179    -0.07400
C4790       C  0.80869124  0.59310206  0.93868706     0.13500
C4791       C  0.82485114  0.60193078  0.91009995    -0.24200
H4792       H  0.78234086  0.60350268  0.92139232     0.14800
H4793       H  0.80267284  0.56396085  0.50859363     0.14800
C4794       C  0.75711394  0.55895147  0.51578562    -0.24200
H4795       H  0.81666614  0.60840550  0.89194144     0.05000
H4796       H  0.82679261  0.58635635  0.90045719     0.08200
H4797       H  0.84358768  0.61743299  0.91558185     0.08200
H4798       H  0.73844099  0.54610030  0.50611167     0.08200
H4799       H  0.75581411  0.57248715  0.53129613     0.08200
H4800       H  0.76284058  0.54777866  0.53022614     0.05000
C4801       C  0.97434561  0.81028280  0.57350558    -0.20800
C4802       C  0.94952497  0.79885337  0.58367536    -0.07400
C4803       C  0.94281610  0.78537766  0.61185806     0.13500
C4804       C  0.96052144  0.78153534  0.62737930    -0.20900
C4805       C  0.98472226  0.79055809  0.61536002    -0.07400
C4806       C  0.99207893  0.80631840  0.58883976     0.13500
C4807       C  0.01834607  0.81892413  0.57616791    -0.24200
H4808       H  0.97955225  0.82113497  0.55220038     0.14800
H4809       H  0.95488344  0.77022071  0.64829209     0.14800
C4810       C  0.91707808  0.77504654  0.62572841    -0.24200
H4811       H  0.02099476  0.83223982  0.55725779     0.05000
H4812       H  0.02269246  0.80496454  0.56630497     0.08200
H4813       H  0.03173542  0.82954140  0.59481774     0.08200
H4814       H  0.90298561  0.76016804  0.61089055     0.08200
H4815       H  0.91248845  0.79018449  0.62828014     0.08200
H4816       H  0.91578381  0.76679745  0.64901324     0.05000
C4817       C  0.97323656  0.66392018  0.57543793    -0.20800
C4818       C  0.94784410  0.65392651  0.58251804    -0.07400
C4819       C  0.94076181  0.66386678  0.60747525     0.13500
C4820       C  0.95905886  0.68440463  0.62344506    -0.20900
C4821       C  0.98433845  0.69587873  0.61483367    -0.07400
C4822       C  0.99162221  0.68498503  0.59097670     0.13500
C4823       C  0.51803962  0.69550103  0.58192837    -0.24200
H4824       H  0.97859785  0.65608371  0.55644034     0.14800
H4825       H  0.95324581  0.69232966  0.64184875     0.14800
C4826       C  0.91393754  0.65293119  0.61760577    -0.24200
H4827       H  0.52025736  0.68337623  0.56476504     0.05000
H4828       H  0.52938282  0.69691665  0.60250813     0.08200
H4829       H  0.52532744  0.71407418  0.57096595     0.08200
H4830       H  0.90606199  0.63285097  0.62264865     0.08200
H4831       H  0.90283272  0.65552415  0.59937068     0.08200
H4832       H  0.91211226  0.66192605  0.63892924     0.05000
C4833       C  0.54817584  0.82339360  0.77717662    -0.20800
C4834       C  0.53571066  0.81897343  0.74895123    -0.07400
C4835       C  0.52663379  0.83468903  0.73911038     0.13500
C4836       C  0.53149704  0.85542467  0.75714188    -0.20900
C4837       C  0.54567733  0.86113097  0.78451471    -0.07400
C4838       C  0.55325516  0.84414782  0.79524859     0.13500
C4839       C  0.56766978  0.84796440  0.82478107    -0.24200
H4840       H  0.55500986  0.81106220  0.78437608     0.14800
H4841       H  0.52512980  0.86786750  0.74891899     0.14800
C4842       C  0.01481358  0.83103973  0.70683673    -0.24200
H4843       H  0.57171129  0.83261846  0.82915888     0.05000
H4844       H  0.55664024  0.84852783  0.84481810     0.08200
H4845       H  0.58585211  0.86548004  0.82333523     0.08200
H4846       H  0.99736534  0.81276571  0.70683902     0.08200
H4847       H  0.02726217  0.83139317  0.68796903     0.08200
H4848       H  0.00987220  0.84567185  0.70181986     0.05000
C4849       C  0.52015897  0.69399345  0.74628997    -0.20800
C4850       C  0.53493588  0.71941506  0.75268009    -0.07400
C4851       C  0.55105711  0.72685892  0.77852128     0.13500
C4852       C  0.55452477  0.70906699  0.79445746    -0.20900
C4853       C  0.54222447  0.68397941  0.78543798    -0.07400
C4854       C  0.52346082  0.67609549  0.76243213     0.13500
C4855       C  0.50681851  0.64902297  0.75459263    -0.24200
H4856       H  0.50706733  0.68820922  0.72727576     0.14800
H4857       H  0.56804148  0.71515816  0.81300404     0.14800
C4858       C  0.06641382  0.75411004  0.78844946    -0.24200
H4859       H  0.51765420  0.64145725  0.74294822     0.05000
H4860       H  0.49795212  0.63822666  0.77603392     0.08200
H4861       H  0.49168120  0.64636441  0.73855237     0.08200
H4862       H  0.05320619  0.76117707  0.79207174     0.08200
H4863       H  0.57906686  0.76563764  0.77247169     0.08200
H4864       H  0.07628218  0.75613408  0.81063023     0.05000
C4865       C  0.72597152  0.54307172  0.62375501    -0.20800
C4866       C  0.71301079  0.51788025  0.61501213    -0.07400
C4867       C  0.69460674  0.51047703  0.59157508     0.13500
C4868       C  0.69149777  0.52870153  0.57586103    -0.20900
C4869       C  0.70630106  0.55404195  0.58273675    -0.07400
C4870       C  0.72295604  0.56119165  0.60795376     0.13500
C4871       C  0.73763554  0.58789798  0.61847142    -0.24200
H4872       H  0.73955842  0.54898134  0.64219871     0.14800
H4873       H  0.67839990  0.52324831  0.55688062     0.14800
C4874       C  0.67815510  0.48360486  0.58274423    -0.24200
H4875       H  0.74798498  0.58967129  0.64016830     0.05000
H4876       H  0.72478041  0.59525553  0.62299574     0.08200
H4877       H  0.75158407  0.59952880  0.60066853     0.08200
H4878       H  0.66806398  0.97198370  0.60230729     0.08200
H4879       H  0.68937855  0.47624524  0.57162098     0.08200
H4880       H  0.66361414  0.48132252  0.56591818     0.05000
C4881       C  0.82011971  0.54128064  0.62738626    -0.20800
C4882       C  0.80669352  0.51662834  0.61688214    -0.07400
C4883       C  0.81606535  0.50934686  0.59130738     0.13500
C4884       C  0.83732319  0.52740769  0.57550238    -0.20900
C4885       C  0.84913712  0.55247855  0.58429275    -0.07400
C4886       C  0.84109311  0.55930633  0.61137249     0.13500
C4887       C  0.85464308  0.58548014  0.62375678    -0.24200
H4888       H  0.81342928  0.54688427  0.64736556     0.14800
H4889       H  0.84384469  0.52218151  0.55502337     0.14800
C4890       C  0.80389466  0.48275992  0.58036625    -0.24200
H4891       H  0.84668792  0.58702722  0.64621558     0.05000
H4892       H  0.85336840  0.59861581  0.60737190     0.08200
H4893       H  0.87446169  0.59101787  0.62760955     0.08200
H4894       H  0.78529658  0.47705213  0.57046030     0.08200
H4895       H  0.80189392  0.97110132  0.60066710     0.08200
H4896       H  0.81508590  0.48028273  0.56195955     0.05000
C4897       C  0.66947053  0.97843733  0.74034536    -0.20800
C4898       C  0.68350109  0.96780694  0.75088125    -0.07400
C4899       C  0.67740951  0.95500418  0.77948144     0.13500
C4900       C  0.65582544  0.95079618  0.79515649    -0.20900
C4901       C  0.63991937  0.95879354  0.78285105    -0.07400
C4902       C  0.64763659  0.97406548  0.75584117     0.13500
C4903       C  0.63302275  0.98548721  0.74257986    -0.24200
H4904       H  0.67459933  0.98867963  0.71864059     0.14800
H4905       H  0.65074744  0.93995160  0.81637465     0.14800
C4906       C  0.69353015  0.94563364  0.79356736    -0.24200
H4907       H  0.64314432  0.99843691  0.72313722     0.05000
H4908       H  0.62978977  0.99627870  0.76073325     0.08200
H4909       H  0.61497941  0.97079267  0.73327510     0.08200
H4910       H  0.71216059  0.45951462  0.79540987     0.08200
H4911       H  0.69335456  0.93077745  0.77908925     0.08200
H4912       H  0.68689915  0.93764782  0.81704822     0.05000
C4913       C  0.80500506  0.97684401  0.74504188    -0.20800
C4914       C  0.77953157  0.96138246  0.75124954    -0.07400
C4915       C  0.77201720  0.94370744  0.77555669     0.13500
C4916       C  0.79002063  0.94060181  0.79130165    -0.20900
C4917       C  0.81535084  0.95444228  0.78326130    -0.07400
C4918       C  0.82308954  0.97354567  0.76065236     0.13500
C4919       C  0.85021861  0.99054918  0.75287091    -0.24200
H4920       H  0.81069820  0.99061459  0.72667993     0.14800
H4921       H  0.78404238  0.92631503  0.80904781     0.14800
C4922       C  0.74508714  0.92813793  0.78528563    -0.24200
H4923       H  0.85278667  0.00559755  0.73663154     0.05000
H4924       H  0.85819195  0.97997313  0.74152448     0.08200
H4925       H  0.86073134  0.99941220  0.77431110     0.08200
H4926       H  0.73391362  0.91519427  0.76659725     0.08200
H4927       H  0.73814974  0.44175506  0.79130011     0.08200
H4928       H  0.74318215  0.41784389  0.80712194     0.05000
C4929       C  0.62193559  0.85548088  0.61080919    -0.20800
C4930       C  0.60389234  0.85102553  0.63343488    -0.07400
C4931       C  0.60707439  0.87036030  0.65343832     0.13500
C4932       C  0.62989276  0.89260461  0.65328585    -0.20900
C4933       C  0.64954823  0.89559254  0.63396298    -0.07400
C4934       C  0.64507978  0.87745776  0.61115864     0.13500
C4935       C  0.66531641  0.87983740  0.58941941    -0.24200
H4936       H  0.61904224  0.84062697  0.59516471     0.14800
H4937       H  0.63313973  0.90684486  0.67016314     0.14800
C4938       C  0.58683059  0.86708488  0.67582340    -0.24200
H4939       H  0.65864645  0.86353107  0.57382963     0.05000
H4940       H  0.68121244  0.88115937  0.60286984     0.08200
H4941       H  0.67177647  0.89669066  0.57473186     0.08200
H4942       H  0.58289907  0.85205006  0.69272787     0.08200
H4943       H  0.56955754  0.86229959  0.66283314     0.08200
H4944       H  0.59219405  0.88435914  0.68910115     0.05000
C4945       C  0.84518020  0.78560173  0.61101013    -0.20800
C4946       C  0.84968278  0.79836477  0.58286030    -0.07400
C4947       C  0.83482857  0.80873804  0.57416832     0.13500
C4948       C  0.81446139  0.80444001  0.59290970    -0.20900
C4949       C  0.80850620  0.78986880  0.62008940    -0.07400
C4950       C  0.82497087  0.78137511  0.63000578     0.13500
C4951       C  0.82105037  0.76683874  0.65959400    -0.24200
H4952       H  0.85700838  0.77798336  0.61748842     0.14800
H4953       H  0.80245876  0.81157124  0.58543824     0.14800
C4954       C  0.83953665  0.82301484  0.54423217    -0.24200
H4955       H  0.83597312  0.76205467  0.66331491     0.05000
H4956       H  0.80306551  0.74909531  0.65878314     0.08200
H4957       H  0.82129848  0.77811544  0.67970438     0.08200
H4958       H  0.83819154  0.81102146  0.52439186     0.08200
H4959       H  0.85844064  0.83966390  0.54451116     0.08200
H4960       H  0.82581133  0.82941559  0.54062370     0.05000
C4961       C  0.71645112  0.65743232  0.60870769    -0.20800
C4962       C  0.70418531  0.65331788  0.58032934    -0.07400
C4963       C  0.69561353  0.66948297  0.57057322     0.13500
C4964       C  0.70066299  0.69019407  0.58884624    -0.20900
C4965       C  0.71435233  0.69538941  0.61659104    -0.07400
C4966       C  0.72158149  0.67806900  0.62711623     0.13500
C4967       C  0.73549502  0.68126359  0.65694295    -0.24200
H4968       H  0.72297381  0.64483988  0.61588904     0.14800
H4969       H  0.69463260  0.70290779  0.58064628     0.14800
C4970       C  0.68244606  0.66576281  0.54006779    -0.24200
H4971       H  0.73915577  0.66565005  0.66120401     0.05000
H4972       H  0.72428109  0.68176497  0.67680433     0.08200
H4973       H  0.75385455  0.69860958  0.65602347     0.08200
H4974       H  0.66489348  0.64758264  0.54018308     0.08200
H4975       H  0.69458298  0.66609798  0.52081816     0.08200
H4976       H  0.67762115  0.68054778  0.53556284     0.05000
C4977       C  0.79316266  0.84668280  0.79599980    -0.20800
C4978       C  0.81777407  0.86062235  0.78479795    -0.07400
C4979       C  0.82521908  0.85102488  0.75951564     0.13500
C4980       C  0.80744047  0.82904912  0.74494908    -0.20900
C4981       C  0.78240628  0.81677052  0.75436261    -0.07400
C4982       C  0.77538177  0.82511850  0.78096439     0.13500
C4983       C  0.74910634  0.81141261  0.79357202    -0.24200
H4984       H  0.78729125  0.85339200  0.81568960     0.14800
H4985       H  0.81275006  0.82240775  0.72465628     0.14800
C4986       C  0.85157477  0.86382052  0.74714281    -0.24200
H4987       H  0.74728693  0.81968673  0.81555004     0.05000
H4988       H  0.74376941  0.79175963  0.79832319     0.08200
H4989       H  0.73588492  0.81208350  0.77683519     0.08200
H4990       H  0.86478891  0.86688361  0.76620906     0.08200
H4991       H  0.85615919  0.88183999  0.73618622     0.08200
H4992       H  0.85421841  0.85251528  0.72914764     0.05000
C4993       C  0.65480953  0.70218263  0.79531376    -0.20800
C4994       C  0.63755702  0.67985469  0.78077827    -0.07400
C4995       C  0.64440910  0.67373698  0.75193953     0.13500
C4996       C  0.66672641  0.69118719  0.73729624    -0.20900
C4997       C  0.68233721  0.71443205  0.75056533    -0.07400
C4998       C  0.67699917  0.71948165  0.78055972     0.13500
C4999       C  0.69470924  0.74318089  0.79700126    -0.24200
H5000       H  0.65050959  0.70680518  0.81786096     0.14800
H5001       H  0.67123836  0.68729927  0.71441203     0.14800
C5002       C  0.62844206  0.64924259  0.73593561    -0.24200
H5003       H  0.68821100  0.74372296  0.82085865     0.05000
H5004       H  0.69648555  0.75954705  0.78421730     0.08200
H5005       H  0.71330833  0.74459262  0.79865915     0.08200
H5006       H  0.61069481  0.64787711  0.72823299     0.08200
H5007       H  0.62462981  0.63362240  0.75187792     0.08200
H5008       H  0.63779105  0.64722875  0.71499519     0.05000
C5009       C  0.73409178  0.87822537  0.61277621    -0.20800
C5010       C  0.74524157  0.89532137  0.63687843    -0.07400
C5011       C  0.75954557  0.89124119  0.65916156     0.13500
C5012       C  0.75944773  0.86855986  0.65937232    -0.20900
C5013       C  0.74557024  0.85002823  0.63767542    -0.07400
C5014       C  0.73413361  0.85550455  0.61287718     0.13500
C5015       C  0.72016656  0.83664766  0.58809593    -0.24200
H5016       H  0.72339769  0.88159270  0.59551442     0.14800
H5017       H  0.76869824  0.86452316  0.67794609     0.14800
C5018       C  0.77398749  0.91032585  0.68361414    -0.24200
H5019       H  0.71175022  0.84370632  0.57098486     0.05000
H5020       H  0.70496156  0.81946410  0.59873954     0.08200
H5021       H  0.73312093  0.83213314  0.57550309     0.08200
H5022       H  0.76109540  0.91277591  0.69919002     0.08200
H5023       H  0.78699054  0.92839182  0.67240699     0.08200
H5024       H  0.78514227  0.90464880  0.69813979     0.05000
C5025       C  0.64896789  0.77085439  0.61418753    -0.20800
C5026       C  0.65181391  0.75540925  0.63563286    -0.07400
C5027       C  0.63108681  0.73831441  0.65342867     0.13500
C5028       C  0.60895351  0.73937130  0.65227708    -0.20900
C5029       C  0.60727882  0.75724780  0.63399289    -0.07400
C5030       C  0.62702644  0.77234642  0.61355190     0.13500
C5031       C  0.62610865  0.79187251  0.59358496    -0.24200
H5032       H  0.66483861  0.78371828  0.60034204     0.14800
H5033       H  0.59359746  0.72758133  0.66757919     0.14800
C5034       C  0.63257914  0.71958392  0.67443123    -0.24200
H5035       H  0.64347620  0.80258261  0.57976610     0.05000
H5036       H  0.62377082  0.80519414  0.60844273     0.08200
H5037       H  0.61024864  0.78290763  0.57728285     0.08200
H5038       H  0.64624324  0.72906343  0.69318916     0.08200
H5039       H  0.63830021  0.70804886  0.66075432     0.08200
H5040       H  0.61430165  0.70693644  0.68550739     0.05000
loop_ 
_geom_bond_atom_site_label_1 
_geom_bond_atom_site_label_2 
_geom_bond_distance 
_geom_bond_site_symmetry_2 
_ccdc_geom_bond_type 
Fe1          O17   2.042       .  S
Fe1           O7   2.056       .  S
Fe1          O14   2.055       .  S
Fe1           O6   2.045       .  S
Fe1          O12   1.968       .  S
Fe2           O5   2.059       .  S
Fe2           O9   2.085       .  S
Fe2          O13   2.074       .  S
Fe2          O18   2.070       .  S
Fe2          O12   1.980       .  S
Fe3          O21   2.064       .  S
Fe3           O8   2.066       .  S
Fe3          O15   2.074       .  S
Fe3           O4   2.073       .  S
Fe3          O12   1.986       .  S
O4           C11   1.268       .  A
O5           C19   1.267       .  A
O6           C11   1.265       .  A
O7           C10   1.268       .  A
O8           C20   1.270       .  A
O9           C22   1.271       .  A
C10          O15   1.269       .  A
C10         C603   1.478       .  S
C11         C616   1.471       .  S
O13          C16   1.268       .  A
O14          C16   1.266       .  A
C16         C587   1.474       .  S
O17          C22   1.264       .  A
O18          C20   1.269       .  A
C19          O21   1.270       .  A
C19         C539   1.490       .  S
C20         C555   1.499       .  S
C22         C571   1.478       .  S
Fe23         O39   2.038       .  S
Fe23         O29   2.043       .  S
Fe23         O36   2.037       .  S
Fe23         O28   2.048       .  S
Fe23         O34   1.961       .  S
Fe24         O27   2.072   1_565  S
Fe24         O35   2.085       .  S
Fe24         O40   2.056   1_565  S
Fe24       O1291   2.067       .  S
Fe24       O1294   1.971       .  S
Fe25         O43   2.070       .  S
Fe25         O30   2.060       .  S
Fe25         O37   2.072       .  S
Fe25         O26   2.081       .  S
Fe25         O34   1.980       .  S
O26          C33   1.270       .  A
O27          C41   1.273       .  A
O28          C33   1.266       .  A
O29          C32   1.265       .  A
O30        C1302   1.266       .  A
O31       Fe1284   2.072       .  S
O31          C44   1.268       .  A
C32          O37   1.268       .  A
C32         C523   1.473       .  S
C33         C600   1.474       .  S
O34       Fe1284   1.975       .  S
O35        C1298   1.272       .  A
O36          C38   1.263       .  A
C38        O1295   1.271       .  A
C38         C504   1.476       .  S
O39          C44   1.262       .  A
O40          C42   1.268       .  A
C41        O1303   1.270   1_545  A
C41         C456   1.495       .  S
C42        O1290   1.267   1_545  A
C42         C472   1.482       .  S
O43        C1301   1.271       .  A
C44         C488   1.471       .  S
Fe45         O61   2.049       .  S
Fe45         O51   2.043       .  S
Fe45         O58   2.039       .  S
Fe45         O50   2.049       .  S
Fe45         O56   1.965       .  S
Fe46         O49   2.066       .  S
Fe46         O62   2.055       .  S
Fe46       O2573   2.074       .  S
Fe46       O2577   2.073       .  S
Fe46       O2576   1.974       .  S
Fe47         O65   2.062       .  S
Fe47         O52   2.058       .  S
Fe47         O59   2.076       .  S
Fe47         O48   2.065       .  S
Fe47         O56   1.987       .  S
O48          C55   1.267       .  A
O49          C63   1.272       .  A
O50          C55   1.267       .  A
O51          C54   1.265       .  A
O52        C2584   1.266       .  A
O53       Fe2566   2.076       .  S
O53          C66   1.270       .  A
C54          O59   1.268       .  A
C54         C619   1.471       .  S
C55         C520   1.465       .  S
O56       Fe2566   1.977       .  S
O57       Fe2566   2.069       .  S
O57          C60   1.267       .  A
O58          C60   1.263       .  A
C60         C424   1.467       .  S
O61          C66   1.265       .  A
O62          C64   1.267       .  A
C63        O2585   1.268       .  A
C63         C411   1.491       .  S
C64        O2572   1.267       .  A
C64         C395   1.483       .  S
O65        C2583   1.269       .  A
C66         C440   1.480       .  S
Fe67         O83   2.038       .  S
Fe67         O73   2.041   1_554  S
Fe67         O80   2.043       .  S
Fe67         O72   2.037   1_554  S
Fe67         O78   1.966   1_554  S
Fe68         O75   2.084       .  S
Fe68         O79   2.082       .  S
Fe68        O701   2.069   1_554  S
Fe68        O714   2.065   1_554  S
Fe68         O78   1.975   1_554  S
Fe69         O87   2.061       .  S
Fe69         O74   2.063       .  S
Fe69         O81   2.076       .  S
Fe69         O70   2.078       .  S
Fe69        O708   1.988       .  S
O70          C77   1.268       .  A
O71        Fe698   2.068       .  S
O71          C85   1.271       .  A
O72         C707   1.264       .  A
O73         C706   1.265       .  A
O74          C86   1.268       .  A
O75          C88   1.271       .  A
C76          O81   1.269       .  A
C76         O703   1.265       .  A
C76         C376   1.471       .  S
C77         O702   1.263       .  A
C77         C360   1.472       .  S
O78        Fe699   1.987       .  S
O79          C82   1.270       .  A
O80          C82   1.264       .  A
C82         C552   1.476       .  S
O83          C88   1.262       .  A
O84        Fe698   2.068       .  S
O84          C86   1.272       .  A
C85          O87   1.267       .  A
C85         C344   1.494       .  S
C86         C328   1.495       .  S
C88         C459   1.479       .  S
Fe89        O105   2.047       .  S
Fe89         O95   2.043       .  S
Fe89        O102   2.046       .  S
Fe89         O94   2.050       .  S
Fe89        O100   1.966       .  S
Fe90         O97   2.076       .  S
Fe90        O101   2.074       .  S
Fe90        O723   2.063   1_554  S
Fe90        O736   2.066   1_554  S
Fe90        O100   1.978       .  S
Fe91        O109   2.055       .  S
Fe91         O96   2.057       .  S
Fe91        O103   2.070       .  S
Fe91         O92   2.071       .  S
Fe91        O730   1.988       .  S
O92          C99   1.268       .  A
O93        Fe720   2.061       .  S
O93         C107   1.270       .  A
O94         C729   1.269   1_554  A
O95         C728   1.264   1_554  A
O96         C108   1.268       .  A
O97         C110   1.269       .  A
C98         O103   1.266       .  A
C98         O725   1.264       .  A
C98         C312   1.470       .  S
C99         O724   1.268       .  A
C99         C379   1.477       .  S
O100       Fe721   1.989   1_554  S
O101        C104   1.269       .  A
O102        C104   1.264       .  A
C104        C475   1.475       .  S
O105        C110   1.264       .  A
O106       Fe720   2.068       .  S
O106        C108   1.268       .  A
C107        O109   1.267       .  A
C107        C283   1.482       .  S
C108        C299   1.494       .  S
C110        C408   1.478       .  S
Fe111       O127   2.044       .  S
Fe111       O117   2.054   1_554  S
Fe111       O124   2.045       .  S
Fe111       O116   2.041       .  S
Fe111       O122   1.963       .  S
Fe112       O119   2.071       .  S
Fe112       O123   2.064       .  S
Fe112       O745   2.057   1_554  S
Fe112       O758   2.059   1_554  S
Fe112       O122   1.976       .  S
Fe113       O131   2.065       .  S
Fe113       O118   2.049       .  S
Fe113       O125   2.060       .  S
Fe113       O114   2.074       .  S
Fe113       O752   1.974       .  S
O114        C121   1.269       .  A
O115       Fe742   2.055       .  S
O115        C129   1.268       .  A
O116        C751   1.265   1_554  A
O117        C750   1.267       .  A
O118        C130   1.264       .  A
O119        C132   1.269       .  A
C120        O125   1.266       .  A
C120        O747   1.268       .  A
C120        C363   1.468       .  S
C121        O746   1.265       .  A
C121        C315   1.470       .  S
O122       Fe743   1.983   1_554  S
O123        C126   1.267       .  A
O124        C126   1.263       .  A
C126        C392   1.472       .  S
O127        C132   1.266       .  A
O128       Fe742   2.066       .  S
O128        C130   1.272       .  A
C129        O131   1.268       .  A
C129        C248   1.480       .  S
C130        C264   1.488       .  S
C132        C536   1.467       .  S
Fe133       O149   2.039       .  S
Fe133       O139   2.037       .  S
Fe133       O146   2.036       .  S
Fe133       O138   2.041       .  S
Fe133       O144   1.966       .  S
Fe134       O137   2.073       .  S
Fe134       O141   2.076       .  S
Fe134       O145   2.080       .  S
Fe134       O150   2.061       .  S
Fe134       O144   1.979       .  S
Fe135       O153   2.063       .  S
Fe135       O140   2.056       .  S
Fe135       O147   2.077       .  S
Fe135       O136   2.079       .  S
Fe135       O144   1.988       .  S
O136        C143   1.268       .  A
O137        C151   1.272       .  A
O138        C143   1.266       .  A
O139        C142   1.264       .  A
O140        C152   1.266       .  A
O141        C154   1.269       .  A
C142        O147   1.268       .  A
C142        C232   1.473       .  S
C143       C1476   1.477       .  S
O145        C148   1.270       .  A
O146        C148   1.262       .  A
C148        C296   1.470       .  S
O149        C154   1.263       .  A
O150        C152   1.269       .  A
C151        O153   1.268       .  A
C151        C568   1.495       .  S
C152        C507   1.481       .  S
C154        C251   1.475       .  S
Fe155       O171   2.051       .  S
Fe155       O161   2.041       .  S
Fe155       O168   2.036       .  S
Fe155       O160   2.050       .  S
Fe155       O166   1.966       .  S
Fe156       O159   2.058       .  S
Fe156       O163   2.072       .  S
Fe156       O167   2.072       .  S
Fe156       O172   2.058       .  S
Fe156       O166   1.978       .  S
Fe157       O175   2.055       .  S
Fe157       O162   2.061       .  S
Fe157       O169   2.071       .  S
Fe157       O158   2.067       .  S
Fe157       O166   1.988       .  S
O158        C165   1.267       .  A
O159        C173   1.270       .  A
O160        C165   1.266       .  A
O161        C164   1.265       .  A
O162        C174   1.269       .  A
O163        C176   1.268       .  A
C164        O169   1.268       .  A
C164       C1463   1.469       .  S
C165       C2755   1.472   1_455  S
O167        C170   1.268       .  A
O168        C170   1.263       .  A
C170        C267   1.469       .  S
O171        C176   1.264       .  A
O172        C174   1.266       .  A
C173        O175   1.266       .  A
C173        C491   1.486       .  S
C174        C427   1.491       .  S
C176        C347   1.474       .  S
Fe177       O193   2.028       .  S
Fe177       O183   2.060       .  S
Fe177       O190   2.058       .  S
Fe177       O182   2.035       .  S
Fe177       O188   1.957       .  S
Fe178       O181   2.063       .  S
Fe178       O185   2.091       .  S
Fe178       O189   2.068       .  S
Fe178       O194   2.081       .  S
Fe178       O188   1.974       .  S
Fe179       O197   2.068       .  S
Fe179       O184   2.058       .  S
Fe179       O191   2.067       .  S
Fe179       O180   2.082       .  S
Fe179       O188   1.977       .  S
O180        C187   1.270       .  A
O181        C195   1.269       .  A
O182        C187   1.264       .  A
O183        C186   1.268       .  A
O184        C196   1.268       .  A
O185        C198   1.273       .  A
C186        O191   1.267       .  A
C186       C2739   1.473   1_455  S
C187        C200   1.473       .  S
O189        C192   1.268       .  A
O190        C192   1.266       .  A
C192        C331   1.478       .  S
O193        C198   1.262       .  A
O194        C196   1.275       .  A
C195        O197   1.269       .  A
C195        C443   1.486       .  S
C196        C584   1.499       .  S
C198        C280   1.476       .  S
C199        C200   1.404       .  A
C199        C204   1.399       .  A
C199        H206   1.085       .  S
C200        C201   1.414       .  A
C201        C202   1.404       .  A
C201        C208   1.507       .  S
C202        C203   1.402       .  A
C202       H1467   1.084       .  S
C203       C1424   1.468   1_545  S
C203        C204   1.411       .  A
C204        C205   1.510       .  S
C205        H209   1.111       .  S
C205        H210   1.110       .  S
C205        H211   1.109       .  S
H207       C1462   1.084       .  S
C208        H212   1.110       .  S
C208        H213   1.111       .  S
C208        H214   1.111       .  S
C215        C216   1.403       .  A
C215        C220   1.397       .  A
C215        H222   1.085       .  S
C216       C1403   1.477   1_545  S
C216        C217   1.412       .  A
C217        C218   1.408       .  A
C217        C224   1.504       .  S
C218        C219   1.406       .  A
C218        H223   1.084       .  S
C219       C2706   1.476       .  S
C219        C220   1.413       .  A
C220        C221   1.510       .  S
C221        H225   1.111       .  S
C221        H226   1.110       .  S
C221        H227   1.108       .  S
C224        H230   1.111       .  S
C224       H1488   1.111       .  S
C224       H1489   1.105   1_545  S
H228       C1484   1.110       .  S
H229       C1484   1.104       .  S
C231        C232   1.403       .  A
C231        C236   1.399       .  A
C231        H238   1.085       .  S
C232        C233   1.412       .  A
C233        C234   1.404       .  A
C233        C240   1.503       .  S
C234        C235   1.402       .  A
C234        H239   1.084       .  S
C235       C2685   1.469       .  S
C235        C236   1.412       .  A
C236        C237   1.509       .  S
C237        H241   1.111       .  S
C237        H243   1.110       .  S
C237       H2762   1.108       .  S
C240        H244   1.106       .  S
C240        H245   1.110       .  S
C240        H246   1.111       .  S
H242       C2757   1.108       .  S
C247        C248   1.404       .  A
C247        C252   1.400       .  A
C247        H254   1.084       .  S
C248        C249   1.417       .  A
C249        C250   1.404       .  A
C249        C256   1.508       .  S
C250        C251   1.402       .  A
C250        H255   1.084       .  S
C251        C252   1.415       .  A
C252        C253   1.510       .  S
C253        H257   1.111       .  S
C253        H258   1.110       .  S
C253        H259   1.109       .  S
C256        H260   1.111       .  S
C256        H261   1.109       .  S
C256        H262   1.111       .  S
C263        C268   1.395   1_655  A
C263       C2784   1.406       .  A
C263        H270   1.084       .  S
C264        C265   1.424       .  A
C264       C2783   1.406       .  A
C265        C266   1.405       .  A
C265        C272   1.509       .  S
C266       C2787   1.400       .  A
C266        H271   1.085       .  S
C267        C268   1.410       .  A
C267       C2786   1.400       .  A
C268        C269   1.508       .  S
C269        H273   1.111       .  S
C269        H274   1.108       .  S
C269        H275   1.108       .  S
C272        H276   1.109       .  S
C272        H277   1.111       .  S
C272        H278   1.111       .  S
C279        C284   1.405       .  A
C279       C2800   1.401       .  A
C279        H286   1.084       .  S
C280        C281   1.417       .  A
C280       C2799   1.402       .  A
C281        C282   1.397   1_455  A
C281        C288   1.510       .  S
C282       C2803   1.402       .  A
C282        H287   1.085       .  S
C283        C284   1.420       .  A
C283       C2802   1.403       .  A
C284        C285   1.508       .  S
C285        H289   1.111       .  S
C285        H290   1.111       .  S
C285        H291   1.109       .  S
C288        H292   1.108       .  S
C288        H293   1.109       .  S
C288        H294   1.111       .  S
C295        C296   1.400       .  A
C295       C1560   1.403       .  A
C295        H302   1.085       .  S
C296        C297   1.408       .  A
C297       C1558   1.403       .  A
C297        C304   1.508       .  S
C298        C299   1.412       .  A
C298       C1557   1.404       .  A
C298        H303   1.083       .  S
C299        C300   1.422       .  A
C300       C1555   1.403   1_545  A
C300        C301   1.509       .  S
C301        H305   1.111       .  S
C301        H306   1.110       .  S
C301        H307   1.111       .  S
C304        H308   1.110       .  S
C304        H309   1.111       .  S
C304        H310   1.111       .  S
C311        C312   1.402       .  A
C311        C316   1.400       .  A
C311        H318   1.084       .  S
C312        C313   1.411       .  A
C313        C314   1.401       .  A
C313        C320   1.501       .  S
C314        C315   1.401       .  A
C314        H319   1.084       .  S
C315        C316   1.414       .  A
C316        C317   1.510       .  S
C317        H321   1.111       .  S
C317        H323   1.110       .  S
C317        H952   1.108       .  S
C320        H325   1.110       .  S
C320        H326   1.111       .  S
C320        H954   1.107       .  S
H322        C947   1.108       .  S
H324        C950   1.107       .  S
C327        C328   1.409       .  A
C327        C332   1.402       .  A
C327        H334   1.084       .  S
C328        C329   1.424       .  A
C329        C330   1.405       .  A
C329        C336   1.509       .  S
C330        C331   1.400       .  A
C330        H335   1.085       .  S
C331        C332   1.412       .  A
C332        C333   1.507       .  S
C333        H337   1.111       .  S
C333        H338   1.108       .  S
C333        H339   1.110       .  S
C336        H340   1.109       .  S
C336        H341   1.111       .  S
C336        H342   1.111       .  S
C343        C344   1.407       .  A
C343       C1608   1.401   1_545  A
C343       H1610   1.084       .  S
C344        C345   1.424       .  A
C345        C346   1.406   1_545  A
C345        C352   1.509       .  S
C346       C1607   1.400       .  A
C346        H351   1.085       .  S
C347        C348   1.410       .  A
C347       C1606   1.398       .  A
C348       C1603   1.402       .  A
C348        C349   1.506       .  S
C349        H353   1.111       .  S
C349        H354   1.109       .  S
C349        H355   1.109       .  S
H350       C1603   1.084       .  S
C352        H356   1.110       .  S
C352        H357   1.109       .  S
C352        H358   1.111       .  S
C359        C360   1.402       .  A
C359        C364   1.404       .  A
C359        H366   1.084       .  S
C360        C361   1.414       .  A
C361        C362   1.397       .  A
C361        C368   1.509       .  S
C362        C363   1.400       .  A
C362        H367   1.085       .  S
C363        C364   1.416       .  A
C364        C365   1.508       .  S
C365        H369   1.110       .  S
C365        H370   1.111       .  S
C365        H371   1.106       .  S
C368        H373   1.109       .  S
C368        H374   1.110       .  S
C368       H1002   1.111       .  S
H372        C998   1.111       .  S
C375        C376   1.403       .  A
C375        C380   1.407       .  A
C375        H382   1.084       .  S
C376       C1007   1.414       .  A
C377        C378   1.396       .  A
C377       C1006   1.414       .  A
C377        C384   1.510   1_556  S
C378       C1009   1.401       .  A
C378        H383   1.084   1_556  S
C379        C380   1.415       .  A
C379       C1008   1.402       .  A
C380        C381   1.505       .  S
C381        H385   1.111       .  S
C381        H386   1.110       .  S
C381        H387   1.103       .  S
C384        H388   1.110       .  S
C384        H389   1.107       .  S
C384        H390   1.111       .  S
C391        C392   1.401       .  A
C391        C396   1.403       .  A
C391        H398   1.087       .  S
C392        C393   1.413       .  A
C393        C394   1.399       .  A
C393        C400   1.510       .  S
C394        C395   1.405       .  A
C394        H399   1.086       .  S
C395        C396   1.420       .  A
C396        C397   1.509       .  S
C397        H401   1.111       .  S
C397        H402   1.109       .  S
C397        H403   1.110       .  S
C400        H404   1.108       .  S
C400        H405   1.110       .  S
C400        H406   1.111       .  S
C407        C408   1.402       .  A
C407        C412   1.407       .  A
C407        H414   1.085       .  S
C408        C409   1.412       .  A
C409        C410   1.398       .  A
C409        C416   1.508       .  S
C410        C411   1.407       .  A
C410        H415   1.084       .  S
C411        C412   1.422       .  A
C412       C2933   1.508       .  S
C413       C2932   1.508   1_455  S
C413        H417   1.111       .  S
C413        H418   1.110       .  S
C413        H419   1.109       .  S
C416        H420   1.107       .  S
C416        H421   1.108       .  S
C416        H422   1.111       .  S
C423        C424   1.398       .  A
C423        C428   1.401       .  A
C423        H430   1.085       .  S
C424        C425   1.408       .  A
C425        C426   1.403       .  A
C425       C2952   1.508       .  S
C426        C427   1.411       .  A
C426        H431   1.083       .  S
C427        C428   1.423       .  A
C428        C429   1.509       .  S
C429        H433   1.111       .  S
C429        H434   1.110       .  S
C429        H435   1.110       .  S
C432       C2945   1.508       .  S
C432        H436   1.110       .  S
C432        H437   1.111       .  S
C432        H438   1.111       .  S
C439        C440   1.402       .  A
C439        C444   1.406       .  A
C439        H446   1.084       .  S
C440        C441   1.416       .  A
C441        C442   1.402       .  A
C441       C2968   1.510       .  S
C442        C443   1.405       .  A
C442        H447   1.084       .  S
C443        C444   1.418       .  A
C444        C445   1.508       .  S
C445        H449   1.108       .  S
C445        H450   1.111   1_455  S
C445        H451   1.111   1_455  S
C448       C2961   1.510       .  S
C448        H452   1.111       .  S
C448        H454   1.111       .  S
C448       H2973   1.108       .  S
H453       C2968   1.108       .  S
C455        C456   1.408       .  A
C455        C460   1.400       .  A
C455        H462   1.084       .  S
C456        C457   1.422       .  A
C457        C458   1.408       .  A
C457        C464   1.508   1_545  S
C458        C459   1.402       .  A
C458        H463   1.085       .  S
C459        C460   1.414       .  A
C460        C461   1.510       .  S
C461        H465   1.111       .  S
C461        H466   1.111       .  S
C461        H467   1.109       .  S
C464        H469   1.109       .  S
C464        H470   1.111       .  S
C464       H1728   1.111       .  S
H468       C1724   1.111       .  S
C471        C472   1.404       .  A
C471        C476   1.399       .  A
C471        H478   1.084       .  S
C472        C473   1.418       .  A
C473        C474   1.405       .  A
C473        C480   1.508   1_545  S
C474        C475   1.402       .  A
C474        H479   1.084       .  S
C475        C476   1.413       .  A
C476        C477   1.507       .  S
C477        H481   1.111       .  S
C477        H482   1.109       .  S
C477        H483   1.108       .  S
C480        H484   1.109       .  S
C480        H486   1.111       .  S
C480       H1745   1.110       .  S
H485       C1740   1.110       .  S
C487        C488   1.400       .  A
C487        C492   1.405       .  A
C487        H494   1.085       .  S
C488        C489   1.412       .  A
C489        C490   1.396       .  A
C489        C496   1.507       .  S
C490        C491   1.405       .  A
C490        H495   1.084       .  S
C491        C492   1.422       .  A
C492        C493   1.508       .  S
C493        H497   1.111       .  S
C493        H498   1.111       .  S
C493        H499   1.109       .  S
C496        H501   1.108       .  S
C496        H502   1.111       .  S
C496       H1760   1.109       .  S
H500       C1756   1.110       .  S
C503        C504   1.402       .  A
C503        C508   1.405       .  A
C503        H510   1.085       .  S
C504        C505   1.415       .  A
C505        C506   1.398       .  A
C505        C512   1.507       .  S
C506        C507   1.402       .  A
C506        H511   1.085       .  S
C507        C508   1.419       .  A
C508        C509   1.508       .  S
C509        H513   1.111       .  S
C509        H514   1.109       .  S
C509        H515   1.111       .  S
C512        H516   1.108       .  S
C512       H1777   1.106       .  S
C512       H1778   1.111       .  S
H517       C1772   1.107       .  S
H518       C1772   1.111       .  S
C519        C520   1.399       .  A
C519        C524   1.402       .  A
C519        H526   1.083       .  S
C520        C521   1.410       .  A
C521        C522   1.400       .  A
C521        C528   1.509       .  S
C522        C523   1.404       .  A
C522        H527   1.085       .  S
C523        C524   1.415       .  A
C524        C525   1.508       .  S
C525        H529   1.111       .  S
C525        H530   1.111       .  S
C525        H531   1.110       .  S
C528        H532   1.109       .  S
C528        H533   1.111       .  S
C528        H534   1.111       .  S
C535        C536   1.399       .  A
C535        C540   1.401       .  A
C535        H542   1.085       .  S
C536        C537   1.408       .  A
C537        C538   1.403       .  A
C537        C544   1.508       .  S
C538        C539   1.410       .  A
C538        H543   1.084       .  S
C539        C540   1.422       .  A
C540        C541   1.509       .  S
C541        H545   1.111       .  S
C541        H546   1.110       .  S
C541        H547   1.110       .  S
C544        H548   1.111       .  S
C544        H549   1.110       .  S
C544        H550   1.111       .  S
C551        C552   1.400       .  A
C551        C556   1.404       .  A
C551        H558   1.085       .  S
C552        C553   1.409       .  A
C553        C554   1.406       .  A
C553        C560   1.508       .  S
C554        C555   1.412       .  A
C554        H559   1.083       .  S
C555        C556   1.424       .  A
C556        C557   1.509       .  S
C557        H561   1.111       .  S
C557        H562   1.110       .  S
C557        H563   1.110       .  S
C560        H564   1.110       .  S
C560        H565   1.110       .  S
C560        H566   1.111       .  S
C567        C568   1.408       .  A
C567        C572   1.402       .  A
C567        H574   1.084       .  S
C568        C569   1.424       .  A
C569        C570   1.407       .  A
C569        C576   1.509       .  S
C570        C571   1.400       .  A
C570        H575   1.085       .  S
C571        C572   1.412       .  A
C572        C573   1.508       .  S
C573        H577   1.111       .  S
C573        H578   1.109       .  S
C573        H579   1.109       .  S
C576        H580   1.110       .  S
C576        H581   1.110       .  S
C576        H582   1.111       .  S
C583        C584   1.410       .  A
C583        C588   1.403       .  A
C583        H590   1.084       .  S
C584        C585   1.427       .  A
C585        C586   1.406       .  A
C585        C592   1.509       .  S
C586        C587   1.398       .  A
C586        H591   1.085       .  S
C587        C588   1.408       .  A
C588        C589   1.507       .  S
C589        H593   1.111       .  S
C589        H594   1.109       .  S
C589        H595   1.111       .  S
C592        H596   1.110       .  S
C592        H597   1.111       .  S
C592        H598   1.111       .  S
C599        C600   1.402       .  A
C599        C604   1.408       .  A
C599        H606   1.084       .  S
C600        C601   1.414       .  A
C601        C602   1.400       .  A
C601        C608   1.509       .  S
C602        C603   1.402       .  A
C602        H607   1.085       .  S
C603        C604   1.415       .  A
C604        C605   1.505       .  S
C605        H609   1.111       .  S
C605        H610   1.108       .  S
C605        H611   1.110       .  S
C608        H612   1.107       .  S
C608        H613   1.110       .  S
C608        H614   1.111       .  S
C615        C616   1.403       .  A
C615        C620   1.403       .  A
C615        H622   1.083       .  S
C616        C617   1.412       .  A
C617        C618   1.401       .  A
C617        C624   1.509       .  S
C618        C619   1.402       .  A
C618        H623   1.084       .  S
C619        C620   1.413       .  A
C620        C621   1.507       .  S
C621        H625   1.111       .  S
C621        H626   1.109       .  S
C621        H627   1.110       .  S
C624        H628   1.109       .  S
C624        H629   1.110       .  S
C624        H630   1.111       .  S
Fe631       O647   2.039       .  S
Fe631       O637   2.060       .  S
Fe631       O644   2.057       .  S
Fe631       O636   2.043       .  S
Fe631       O642   1.965       .  S
Fe632       O635   2.056       .  S
Fe632       O639   2.083       .  S
Fe632       O643   2.069       .  S
Fe632       O648   2.069       .  S
Fe632       O642   1.976       .  S
Fe633       O651   2.067       .  S
Fe633       O638   2.063       .  S
Fe633       O645   2.071       .  S
Fe633       O634   2.074       .  S
Fe633       O642   1.982       .  S
O634        C641   1.269       .  A
O635        C649   1.267       .  A
O636        C641   1.265       .  A
O637        C640   1.269       .  A
O638        C650   1.270       .  A
O639        C652   1.270       .  A
C640        O645   1.269       .  A
C640       C1233   1.477       .  S
C641       C1246   1.471       .  S
O643        C646   1.268       .  A
O644        C646   1.266       .  A
C646       C1217   1.472       .  S
O647        C652   1.263       .  A
O648        C650   1.269       .  A
C649        O651   1.271       .  A
C649       C1169   1.487       .  S
C650       C1185   1.498       .  S
C652       C1201   1.474       .  S
Fe653       O669   2.038       .  S
Fe653       O659   2.041       .  S
Fe653       O666   2.035       .  S
Fe653       O658   2.049       .  S
Fe653       O664   1.960       .  S
Fe654       O657   2.073   1_565  S
Fe654      O1921   2.067       .  S
Fe654       O665   2.084       .  S
Fe654       O670   2.055   1_565  S
Fe654      O1924   1.973       .  S
Fe655       O673   2.069       .  S
Fe655       O660   2.060       .  S
Fe655       O667   2.071       .  S
Fe655       O656   2.080       .  S
Fe655       O664   1.979       .  S
O656        C663   1.270       .  A
O657        C671   1.273       .  A
O658        C663   1.266       .  A
O659        C662   1.264       .  A
O660       C1932   1.266       .  A
O661      Fe1914   2.070       .  S
O661        C674   1.267       .  A
C662        O667   1.267       .  A
C662       C1153   1.472       .  S
C663       C1230   1.473       .  S
O664      Fe1914   1.974       .  S
O665       C1928   1.272       .  A
O666        C668   1.263       .  A
C668       O1925   1.272       .  A
C668       C1134   1.477       .  S
O669        C674   1.262       .  A
O670        C672   1.268       .  A
C671       O1933   1.270   1_545  A
C671       C1086   1.496       .  S
C672       O1920   1.267   1_545  A
C672       C1102   1.483       .  S
O673       C1931   1.271       .  A
C674       C1118   1.470       .  S
Fe675       O691   2.046       .  S
Fe675       O681   2.042       .  S
Fe675       O688   2.035       .  S
Fe675       O680   2.048       .  S
Fe675       O686   1.962       .  S
Fe676       O679   2.063       .  S
Fe676      O3203   2.076       .  S
Fe676      O3207   2.070       .  S
Fe676       O692   2.059       .  S
Fe676      O3206   1.978       .  S
Fe677       O695   2.059       .  S
Fe677       O682   2.059       .  S
Fe677       O689   2.077       .  S
Fe677       O678   2.062       .  S
Fe677       O686   1.984       .  S
O678        C685   1.266       .  A
O679        C693   1.271       .  A
O680        C685   1.266       .  A
O681        C684   1.265       .  A
O682       C3214   1.266       .  A
O683      Fe3196   2.075       .  S
O683        C696   1.270       .  A
C684        O689   1.269       .  A
C684       C1249   1.471       .  S
C685       C1150   1.463       .  S
O686      Fe3196   1.975       .  S
O687      Fe3196   2.072       .  S
O687        C690   1.268       .  A
O688        C690   1.263       .  A
C690       C1054   1.467       .  S
O691        C696   1.264       .  A
O692        C694   1.268       .  A
C693       O3215   1.269       .  A
C693       C1041   1.489       .  S
C694       O3202   1.266       .  A
C694       C1025   1.487       .  S
O695       C3213   1.268       .  A
C696       C1070   1.480       .  S
Fe697       O713   2.039       .  S
Fe697       O703   2.039       .  S
Fe697       O710   2.041       .  S
Fe697       O702   2.037       .  S
Fe697       O708   1.968       .  S
Fe698       O705   2.085       .  S
Fe698       O709   2.080       .  S
Fe698       O708   1.978       .  S
Fe699       O717   2.060       .  S
Fe699       O704   2.062       .  S
Fe699       O711   2.073       .  S
Fe699       O700   2.078       .  S
O700        C707   1.268       .  A
O701        C715   1.271       .  A
O704        C716   1.268       .  A
O705        C718   1.271       .  A
C706        O711   1.268       .  A
C706       C1006   1.470       .  S
C707        C990   1.471       .  S
O709        C712   1.270       .  A
O710        C712   1.263       .  A
C712       C1182   1.472       .  S
O713        C718   1.262       .  A
O714        C716   1.272       .  A
C715        O717   1.267       .  A
C715        C974   1.493       .  S
C716        C958   1.492       .  S
C718       C1089   1.480       .  S
Fe719       O735   2.044       .  S
Fe719       O725   2.044       .  S
Fe719       O732   2.046       .  S
Fe719       O724   2.048       .  S
Fe719       O730   1.965       .  S
Fe720       O727   2.078       .  S
Fe720       O731   2.074       .  S
Fe720       O730   1.980       .  S
Fe721       O739   2.054       .  S
Fe721       O726   2.059       .  S
Fe721       O733   2.072       .  S
Fe721       O722   2.069       .  S
O722        C729   1.267       .  A
O723        C737   1.271       .  A
O726        C738   1.268       .  A
O727        C740   1.270       .  A
C728        O733   1.267       .  A
C728        C942   1.471       .  S
C729       C1009   1.474       .  S
O731        C734   1.269       .  A
O732        C734   1.264       .  A
C734       C1105   1.476       .  S
O735        C740   1.264       .  A
O736        C738   1.268       .  A
C737        O739   1.267       .  A
C737        C913   1.483       .  S
C738        C929   1.493       .  S
C740       C1038   1.477       .  S
Fe741       O757   2.039       .  S
Fe741       O747   2.059       .  S
Fe741       O754   2.053       .  S
Fe741       O746   2.040       .  S
Fe741       O752   1.956       .  S
Fe742       O749   2.076       .  S
Fe742       O753   2.060       .  S
Fe742       O752   1.967       .  S
Fe743       O761   2.061       .  S
Fe743       O748   2.051       .  S
Fe743       O755   2.062       .  S
Fe743       O744   2.070       .  S
O744        C751   1.268       .  A
O745        C759   1.269       .  A
O748        C760   1.265       .  A
O749        C762   1.270       .  A
C750        O755   1.266       .  A
C750        C993   1.469       .  S
C751        C945   1.468       .  S
O753        C756   1.266       .  A
O754        C756   1.264       .  A
C756       C1022   1.473       .  S
O757        C762   1.266       .  A
O758        C760   1.270       .  A
C759        O761   1.268       .  A
C759        C878   1.483       .  S
C760        C894   1.486       .  S
C762       C1166   1.466       .  S
Fe763       O779   2.042       .  S
Fe763       O769   2.037       .  S
Fe763       O776   2.035       .  S
Fe763       O768   2.046       .  S
Fe763       O774   1.965       .  S
Fe764       O767   2.071       .  S
Fe764       O771   2.072       .  S
Fe764       O775   2.079       .  S
Fe764       O780   2.057       .  S
Fe764       O774   1.979       .  S
Fe765       O783   2.061       .  S
Fe765       O770   2.062       .  S
Fe765       O777   2.083       .  S
Fe765       O766   2.078       .  S
Fe765       O774   1.987       .  S
O766        C773   1.268       .  A
O767        C781   1.272       .  A
O768        C773   1.267       .  A
O769        C772   1.264       .  A
O770        C782   1.268       .  A
O771        C784   1.269       .  A
C772        O777   1.269       .  A
C772        C862   1.477       .  S
C773       C2106   1.477       .  S
O775        C778   1.270       .  A
O776        C778   1.262       .  A
C778        C926   1.468       .  S
O779        C784   1.263       .  A
O780        C782   1.268       .  A
C781        O783   1.268       .  A
C781       C1198   1.495       .  S
C782       C1137   1.480       .  S
C784        C881   1.475       .  S
Fe785       O801   2.048       .  S
Fe785       O791   2.042       .  S
Fe785       O798   2.037       .  S
Fe785       O790   2.046       .  S
Fe785       O796   1.965       .  S
Fe786       O789   2.059       .  S
Fe786       O793   2.072       .  S
Fe786       O797   2.072       .  S
Fe786       O802   2.057       .  S
Fe786       O796   1.978       .  S
Fe787       O805   2.054       .  S
Fe787       O792   2.061       .  S
Fe787       O799   2.071       .  S
Fe787       O788   2.064       .  S
Fe787       O796   1.988       .  S
O788        C795   1.266       .  A
O789        C803   1.270       .  A
O790        C795   1.266       .  A
O791        C794   1.265       .  A
O792        C804   1.268       .  A
O793        C806   1.268       .  A
C794        O799   1.268       .  A
C794       C2093   1.469       .  S
C795       C3385   1.469   1_455  S
O797        C800   1.268       .  A
O798        C800   1.263       .  A
C800        C897   1.469       .  S
O801        C806   1.264       .  A
O802        C804   1.266       .  A
C803        O805   1.266       .  A
C803       C1121   1.486       .  S
C804       C1057   1.489       .  S
C806        C977   1.474       .  S
Fe807       O823   2.039       .  S
Fe807       O813   2.051       .  S
Fe807       O820   2.049       .  S
Fe807       O812   2.040       .  S
Fe807       O818   1.966       .  S
Fe808       O811   2.067       .  S
Fe808       O815   2.079       .  S
Fe808       O819   2.075       .  S
Fe808       O824   2.070       .  S
Fe808       O818   1.983       .  S
Fe809       O827   2.060       .  S
Fe809       O814   2.061       .  S
Fe809       O821   2.072       .  S
Fe809       O810   2.075       .  S
Fe809       O818   1.986       .  S
O810        C817   1.268       .  A
O811        C825   1.270       .  A
O812        C817   1.265       .  A
O813        C816   1.266       .  A
O814        C826   1.267       .  A
O815        C828   1.270       .  A
C816        O821   1.268       .  A
C816       C3369   1.476   1_455  S
C817        C830   1.470       .  S
O819        C822   1.269       .  A
O820        C822   1.264       .  A
C822        C961   1.480       .  S
O823        C828   1.264       .  A
O824        C826   1.271       .  A
C825        O827   1.267       .  A
C825       C1073   1.488       .  S
C826       C1214   1.498       .  S
C828        C910   1.473       .  S
C829        C830   1.402       .  A
C829        C834   1.399       .  A
C829        H836   1.085       .  S
C830        C831   1.412       .  A
C831        C832   1.404       .  A
C831        C838   1.507       .  S
C832        C833   1.403       .  A
C832       H2097   1.084       .  S
C833       C2054   1.470   1_545  S
C833        C834   1.413       .  A
C834        C835   1.510       .  S
C835        H839   1.111       .  S
C835        H840   1.110       .  S
C835        H841   1.109       .  S
H837       C2092   1.084       .  S
C838        H842   1.110       .  S
C838        H843   1.111       .  S
C838        H844   1.111       .  S
C845        C846   1.403       .  A
C845        C850   1.397       .  A
C845        H852   1.085       .  S
C846       C2033   1.478   1_545  S
C846        C847   1.413       .  A
C847        C848   1.408       .  A
C847        C854   1.504       .  S
C848        C849   1.405       .  A
C848        H853   1.084       .  S
C849       C3336   1.474       .  S
C849        C850   1.413       .  A
C850        C851   1.510       .  S
C851        H855   1.111       .  S
C851        H856   1.110       .  S
C851        H857   1.108       .  S
C854       H2118   1.110       .  S
C854       H2119   1.105   1_545  S
C854        H860   1.111       .  S
H858       C2114   1.110       .  S
H859       C2114   1.104       .  S
C861        C862   1.404       .  A
C861        C866   1.399       .  A
C861        H868   1.084       .  S
C862        C863   1.413       .  A
C863        C864   1.405       .  A
C863        C870   1.502       .  S
C864        C865   1.402       .  A
C864        H869   1.084       .  S
C865       C3315   1.470       .  S
C865        C866   1.411       .  A
C866        C867   1.509       .  S
C867        H871   1.111       .  S
C867       H3392   1.108       .  S
C867        H873   1.110       .  S
C870        H874   1.105       .  S
C870        H875   1.110       .  S
C870        H876   1.111       .  S
H872       C3387   1.108       .  S
C877        C878   1.405       .  A
C877        C882   1.399       .  A
C877        H884   1.084       .  S
C878        C879   1.419       .  A
C879        C880   1.404       .  A
C879        C886   1.508       .  S
C880        C881   1.402       .  A
C880        H885   1.085       .  S
C881        C882   1.414       .  A
C882        C883   1.510       .  S
C883        H887   1.111       .  S
C883        H888   1.110       .  S
C883        H889   1.108       .  S
C886        H890   1.111       .  S
C886        H891   1.109       .  S
C886        H892   1.111       .  S
C893       C3414   1.406       .  A
C893        C898   1.396   1_655  A
C893        H900   1.084       .  S
C894       C3413   1.405       .  A
C894        C895   1.423       .  A
C895        C896   1.405       .  A
C895        C902   1.509       .  S
C896       C3417   1.400       .  A
C896        H901   1.085       .  S
C897       C3416   1.400       .  A
C897        C898   1.410       .  A
C898        C899   1.508       .  S
C899        H903   1.111       .  S
C899        H904   1.108       .  S
C899        H905   1.108       .  S
C902        H906   1.109       .  S
C902        H907   1.111       .  S
C902        H908   1.111       .  S
C909       C3430   1.401       .  A
C909        C914   1.406       .  A
C909        H916   1.084       .  S
C910       C3429   1.400       .  A
C910        C911   1.413       .  A
C911        C912   1.397   1_455  A
C911        C918   1.506       .  S
C912       C3433   1.403       .  A
C912        H917   1.084       .  S
C913       C3432   1.403       .  A
C913        C914   1.420       .  A
C914        C915   1.508       .  S
C915        H919   1.111       .  S
C915        H920   1.111       .  S
C915        H921   1.109       .  S
C918        H922   1.108       .  S
C918        H923   1.108       .  S
C918        H924   1.111       .  S
C925        C926   1.399       .  A
C925       C2190   1.404       .  A
C925        H932   1.084       .  S
C926        C927   1.406       .  A
C927       C2188   1.402       .  A
C927        C934   1.509       .  S
C928       C2187   1.404       .  A
C928        C929   1.411       .  A
C928        H933   1.083       .  S
C929        C930   1.422       .  A
C930       C2185   1.403   1_545  A
C930        C931   1.509       .  S
C931        H935   1.111       .  S
C931        H936   1.110   1_556  S
C931        H937   1.111       .  S
C934        H938   1.110       .  S
C934        H939   1.111       .  S
C934        H940   1.111       .  S
C941        C942   1.402       .  A
C941        C946   1.400       .  A
C941        H948   1.084   1_556  S
C942        C943   1.412       .  A
C943        C944   1.401       .  A
C943        C950   1.502       .  S
C944        C945   1.401       .  A
C944        H949   1.084       .  S
C945        C946   1.413       .  A
C946        C947   1.509   1_556  S
C947        H951   1.111       .  S
C947        H953   1.110   1_554  S
C950        H955   1.110       .  S
C950        H956   1.111       .  S
C957        C958   1.407       .  A
C957        C962   1.399       .  A
C957        H964   1.084       .  S
C958        C959   1.422       .  A
C959        C960   1.407       .  A
C959        C966   1.508       .  S
C960        C961   1.402       .  A
C960        H965   1.085       .  S
C961        C962   1.414       .  A
C962        C963   1.507       .  S
C963        H967   1.111       .  S
C963        H968   1.108       .  S
C963        H969   1.106       .  S
C966        H970   1.109       .  S
C966        H971   1.110       .  S
C966        H972   1.111       .  S
C973        C974   1.407       .  A
C973       C2238   1.402   1_545  A
C973       H2240   1.084       .  S
C974        C975   1.424       .  A
C975        C976   1.406   1_545  A
C975        C982   1.509       .  S
C976       C2237   1.400       .  A
C976        H981   1.085       .  S
C977       C2236   1.399       .  A
C977        C978   1.411       .  A
C978       C2233   1.401       .  A
C978        C979   1.506       .  S
C979        H983   1.111       .  S
C979        H984   1.109       .  S
C979        H985   1.109       .  S
H980       C2233   1.084       .  S
C982        H986   1.110       .  S
C982        H987   1.109       .  S
C982        H988   1.111       .  S
C989        C990   1.402       .  A
C989        C994   1.404       .  A
C989        H996   1.085       .  S
C990        C991   1.414       .  A
C991        C992   1.397       .  A
C991        C998   1.509   1_556  S
C992        C993   1.401       .  A
C992        H997   1.085   1_556  S
C993        C994   1.417       .  A
C994        C995   1.508       .  S
C995        H999   1.110       .  S
C995       H1000   1.111       .  S
C995       H1001   1.105       .  S
C998       H1003   1.109       .  S
C998       H1004   1.110       .  S
C1005      C1006   1.403       .  A
C1005      C1010   1.407       .  A
C1005      H1012   1.084       .  S
C1007      C1008   1.396       .  A
C1007      C1014   1.510       .  S
C1008      H1013   1.084       .  S
C1009      C1010   1.414       .  A
C1010      C1011   1.505       .  S
C1011      H1015   1.111       .  S
C1011      H1016   1.110       .  S
C1011      H1017   1.103       .  S
C1014      H1018   1.111       .  S
C1014      H1019   1.107       .  S
C1014      H1020   1.111       .  S
C1021      C1022   1.400       .  A
C1021      C1026   1.402       .  A
C1021      H1028   1.087       .  S
C1022      C1023   1.413       .  A
C1023      C1024   1.400       .  A
C1023      C1030   1.509       .  S
C1024      C1025   1.407       .  A
C1024      H1029   1.086       .  S
C1025      C1026   1.421       .  A
C1026      C1027   1.509       .  S
C1027      H1031   1.111       .  S
C1027      H1032   1.109       .  S
C1027      H1033   1.110       .  S
C1030      H1034   1.108       .  S
C1030      H1035   1.110       .  S
C1030      H1036   1.111       .  S
C1037      C1038   1.403       .  A
C1037      C1042   1.407       .  A
C1037      H1044   1.085       .  S
C1038      C1039   1.413       .  A
C1039      C1040   1.398       .  A
C1039      C1046   1.508       .  S
C1040      C1041   1.407       .  A
C1040      H1045   1.084       .  S
C1041      C1042   1.421       .  A
C1042      C3563   1.508       .  S
C1043      C3562   1.508   1_455  S
C1043      H1047   1.111       .  S
C1043      H1048   1.110       .  S
C1043      H1049   1.110       .  S
C1046      H1050   1.108       .  S
C1046      H1051   1.108       .  S
C1046      H1052   1.111       .  S
C1053      C1054   1.398       .  A
C1053      C1058   1.400       .  A
C1053      H1060   1.085       .  S
C1054      C1055   1.408       .  A
C1055      C1056   1.403       .  A
C1055      C3582   1.508       .  S
C1056      C1057   1.411       .  A
C1056      H1061   1.084       .  S
C1057      C1058   1.422       .  A
C1058      C1059   1.509       .  S
C1059      H1063   1.111       .  S
C1059      H1064   1.110       .  S
C1059      H1065   1.110       .  S
C1062      C3575   1.508       .  S
C1062      H1066   1.110       .  S
C1062      H1067   1.111       .  S
C1062      H1068   1.111       .  S
C1069      C1070   1.401       .  A
C1069      C1074   1.405       .  A
C1069      H1076   1.084       .  S
C1070      C1071   1.416       .  A
C1071      C1072   1.402       .  A
C1071      C3598   1.510       .  S
C1072      C1073   1.405       .  A
C1072      H1077   1.084       .  S
C1073      C1074   1.420       .  A
C1074      C1075   1.509       .  S
C1075      H1079   1.109       .  S
C1075      H1080   1.111   1_455  S
C1075      H1081   1.111   1_455  S
C1078      C3591   1.510       .  S
C1078      H1082   1.111       .  S
C1078      H3603   1.108       .  S
C1078      H1084   1.111       .  S
H1083      C3598   1.108       .  S
C1085      C1086   1.408       .  A
C1085      C1090   1.401       .  A
C1085      H1092   1.084       .  S
C1086      C1087   1.423       .  A
C1087      C1088   1.408       .  A
C1087      C1094   1.508   1_545  S
C1088      C1089   1.402       .  A
C1088      H1093   1.085       .  S
C1089      C1090   1.414       .  A
C1090      C1091   1.510       .  S
C1091      H1095   1.111       .  S
C1091      H1096   1.111       .  S
C1091      H1097   1.108       .  S
C1094      H2358   1.111       .  S
C1094      H1099   1.109       .  S
C1094      H1100   1.111       .  S
H1098      C2354   1.111       .  S
C1101      C1102   1.404       .  A
C1101      C1106   1.399       .  A
C1101      H1108   1.084       .  S
C1102      C1103   1.419       .  A
C1103      C1104   1.405       .  A
C1103      C1110   1.508   1_545  S
C1104      C1105   1.402       .  A
C1104      H1109   1.085       .  S
C1105      C1106   1.414       .  A
C1106      C1107   1.508       .  S
C1107      H1111   1.111       .  S
C1107      H1112   1.109       .  S
C1107      H1113   1.109       .  S
C1110      H1114   1.109       .  S
C1110      H2375   1.111       .  S
C1110      H1116   1.111       .  S
H1115      C2370   1.110       .  S
C1117      C1118   1.400       .  A
C1117      C1122   1.405       .  A
C1117      H1124   1.085       .  S
C1118      C1119   1.411       .  A
C1119      C1120   1.396       .  A
C1119      C1126   1.508       .  S
C1120      C1121   1.405       .  A
C1120      H1125   1.084       .  S
C1121      C1122   1.423       .  A
C1122      C1123   1.509       .  S
C1123      H1127   1.111       .  S
C1123      H1128   1.111       .  S
C1123      H1129   1.109       .  S
C1126      H2390   1.110       .  S
C1126      H1131   1.108       .  S
C1126      H1132   1.111       .  S
H1130      C2386   1.110       .  S
C1133      C1134   1.403       .  A
C1133      C1138   1.406       .  A
C1133      H1140   1.084       .  S
C1134      C1135   1.416       .  A
C1135      C1136   1.399       .  A
C1135      C1142   1.508       .  S
C1136      C1137   1.402       .  A
C1136      H1141   1.085       .  S
C1137      C1138   1.417       .  A
C1138      C1139   1.508       .  S
C1139      H1143   1.111       .  S
C1139      H1144   1.109       .  S
C1139      H1145   1.111       .  S
C1142      H1146   1.108       .  S
C1142      H2407   1.107       .  S
C1142      H2408   1.111       .  S
H1147      C2402   1.107       .  S
H1148      C2402   1.111       .  S
C1149      C1150   1.399       .  A
C1149      C1154   1.402       .  A
C1149      H1156   1.083       .  S
C1150      C1151   1.410       .  A
C1151      C1152   1.399       .  A
C1151      C1158   1.509       .  S
C1152      C1153   1.404       .  A
C1152      H1157   1.085       .  S
C1153      C1154   1.415       .  A
C1154      C1155   1.508       .  S
C1155      H1159   1.111       .  S
C1155      H1160   1.111       .  S
C1155      H1161   1.110       .  S
C1158      H1162   1.109       .  S
C1158      H1163   1.111       .  S
C1158      H1164   1.111       .  S
C1165      C1166   1.398       .  A
C1165      C1170   1.401       .  A
C1165      H1172   1.085       .  S
C1166      C1167   1.407       .  A
C1167      C1168   1.402       .  A
C1167      C1174   1.508       .  S
C1168      C1169   1.409       .  A
C1168      H1173   1.084       .  S
C1169      C1170   1.422       .  A
C1170      C1171   1.509       .  S
C1171      H1175   1.111       .  S
C1171      H1176   1.110       .  S
C1171      H1177   1.110       .  S
C1174      H1178   1.111       .  S
C1174      H1179   1.110       .  S
C1174      H1180   1.111       .  S
C1181      C1182   1.399       .  A
C1181      C1186   1.403       .  A
C1181      H1188   1.085       .  S
C1182      C1183   1.408       .  A
C1183      C1184   1.405       .  A
C1183      C1190   1.508       .  S
C1184      C1185   1.412       .  A
C1184      H1189   1.083       .  S
C1185      C1186   1.425       .  A
C1186      C1187   1.509       .  S
C1187      H1191   1.111       .  S
C1187      H1192   1.110       .  S
C1187      H1193   1.110       .  S
C1190      H1194   1.110       .  S
C1190      H1195   1.110       .  S
C1190      H1196   1.111       .  S
C1197      C1198   1.409       .  A
C1197      C1202   1.402       .  A
C1197      H1204   1.084       .  S
C1198      C1199   1.424       .  A
C1199      C1200   1.406       .  A
C1199      C1206   1.509       .  S
C1200      C1201   1.399       .  A
C1200      H1205   1.085       .  S
C1201      C1202   1.411       .  A
C1202      C1203   1.508       .  S
C1203      H1207   1.111       .  S
C1203      H1208   1.110       .  S
C1203      H1209   1.109       .  S
C1206      H1210   1.110       .  S
C1206      H1211   1.110       .  S
C1206      H1212   1.111       .  S
C1213      C1214   1.410       .  A
C1213      C1218   1.402       .  A
C1213      H1220   1.084       .  S
C1214      C1215   1.426       .  A
C1215      C1216   1.406       .  A
C1215      C1222   1.509       .  S
C1216      C1217   1.398       .  A
C1216      H1221   1.085       .  S
C1217      C1218   1.408       .  A
C1218      C1219   1.507       .  S
C1219      H1223   1.111       .  S
C1219      H1224   1.109       .  S
C1219      H1225   1.111       .  S
C1222      H1226   1.110       .  S
C1222      H1227   1.111       .  S
C1222      H1228   1.111       .  S
C1229      C1230   1.402       .  A
C1229      C1234   1.407       .  A
C1229      H1236   1.084       .  S
C1230      C1231   1.414       .  A
C1231      C1232   1.401       .  A
C1231      C1238   1.508       .  S
C1232      C1233   1.401       .  A
C1232      H1237   1.085       .  S
C1233      C1234   1.415       .  A
C1234      C1235   1.505       .  S
C1235      H1239   1.111       .  S
C1235      H1240   1.108       .  S
C1235      H1241   1.110       .  S
C1238      H1242   1.107       .  S
C1238      H1243   1.111       .  S
C1238      H1244   1.111       .  S
C1245      C1246   1.402       .  A
C1245      C1250   1.403       .  A
C1245      H1252   1.082       .  S
C1246      C1247   1.412       .  A
C1247      C1248   1.401       .  A
C1247      C1254   1.509       .  S
C1248      C1249   1.403       .  A
C1248      H1253   1.084       .  S
C1249      C1250   1.413       .  A
C1250      C1251   1.507       .  S
C1251      H1255   1.111       .  S
C1251      H1256   1.110       .  S
C1251      H1257   1.110       .  S
C1254      H1258   1.109       .  S
C1254      H1259   1.110       .  S
C1254      H1260   1.111       .  S
Fe1261     O1277   2.042       .  S
Fe1261     O1267   2.057       .  S
Fe1261     O1274   2.055       .  S
Fe1261     O1266   2.045       .  S
Fe1261     O1272   1.968       .  S
Fe1262     O1265   2.060       .  S
Fe1262     O1269   2.083       .  S
Fe1262     O1273   2.076       .  S
Fe1262     O1278   2.066       .  S
Fe1262     O1272   1.980       .  S
Fe1263     O1281   2.064       .  S
Fe1263     O1268   2.064       .  S
Fe1263     O1275   2.073       .  S
Fe1263     O1264   2.075       .  S
Fe1263     O1272   1.986       .  S
O1264      C1271   1.269       .  A
O1265      C1279   1.267       .  A
O1266      C1271   1.265       .  A
O1267      C1270   1.268       .  A
O1268      C1280   1.270       .  A
O1269      C1282   1.271       .  A
C1270      O1275   1.269       .  A
C1270      C1863   1.478       .  S
C1271      C1876   1.472       .  S
O1273      C1276   1.268       .  A
O1274      C1276   1.266       .  A
C1276      C1847   1.476       .  S
O1277      C1282   1.263       .  A
O1278      C1280   1.269       .  A
C1279      O1281   1.270       .  A
C1279      C1799   1.491       .  S
C1280      C1815   1.496       .  S
C1282      C1831   1.478       .  S
Fe1283     O1299   2.042       .  S
Fe1283     O1289   2.042       .  S
Fe1283     O1296   2.035       .  S
Fe1283     O1288   2.052       .  S
Fe1283     O1294   1.958       .  S
Fe1284     O1287   2.069       .  S
Fe1284     O1295   2.083       .  S
Fe1284     O1300   2.059       .  S
Fe1285     O1303   2.068       .  S
Fe1285     O1290   2.063       .  S
Fe1285     O1297   2.073       .  S
Fe1285     O1286   2.078       .  S
Fe1285     O1294   1.976       .  S
O1286      C1293   1.270       .  A
O1287      C1301   1.273       .  A
O1288      C1293   1.267       .  A
O1289      C1292   1.265       .  A
O1291      C1304   1.267       .  A
C1292      O1297   1.268       .  A
C1292      C1783   1.474       .  S
C1293      C1860   1.473       .  S
O1296      C1298   1.263       .  A
C1298      C1764   1.475       .  S
O1299      C1304   1.263       .  A
O1300      C1302   1.268       .  A
C1301      C1716   1.493       .  S
C1302      C1732   1.484       .  S
C1304      C1748   1.470       .  S
Fe1305     O1321   2.044       .  S
Fe1305     O1311   2.045       .  S
Fe1305     O1318   2.039       .  S
Fe1305     O1310   2.045       .  S
Fe1305     O1316   1.965       .  S
Fe1306     O1309   2.064       .  S
Fe1306     O3833   2.078       .  S
Fe1306     O3837   2.070       .  S
Fe1306     O1322   2.061       .  S
Fe1306     O3836   1.978       .  S
Fe1307     O1325   2.064       .  S
Fe1307     O1312   2.060       .  S
Fe1307     O1319   2.077       .  S
Fe1307     O1308   2.066       .  S
Fe1307     O1316   1.987       .  S
O1308      C1315   1.266       .  A
O1309      C1323   1.272       .  A
O1310      C1315   1.265       .  A
O1311      C1314   1.265       .  A
O1312      C3844   1.266       .  A
O1313     Fe3826   2.078       .  S
O1313      C1326   1.270       .  A
C1314      O1319   1.269       .  A
C1314      C1879   1.472       .  S
C1315      C1780   1.465       .  S
O1316     Fe3826   1.978       .  S
O1317     Fe3826   2.068       .  S
O1317      C1320   1.267       .  A
O1318      C1320   1.263       .  A
C1320      C1684   1.466       .  S
O1321      C1326   1.264       .  A
O1322      C1324   1.268       .  A
C1323      O3845   1.268       .  A
C1323      C1671   1.487       .  S
C1324      O3832   1.267       .  A
C1324      C1655   1.488       .  S
O1325      C3843   1.269       .  A
C1326      C1700   1.480       .  S
Fe1327     O1343   2.039       .  S
Fe1327     O1333   2.040   1_554  S
Fe1327     O1340   2.041       .  S
Fe1327     O1332   2.038   1_554  S
Fe1327     O1338   1.966   1_554  S
Fe1328     O1961   2.066   1_554  S
Fe1328     O1335   2.081       .  S
Fe1328     O1339   2.078       .  S
Fe1328     O1974   2.063   1_554  S
Fe1328     O1338   1.976   1_554  S
Fe1329     O1347   2.058       .  S
Fe1329     O1334   2.062       .  S
Fe1329     O1341   2.074       .  S
Fe1329     O1330   2.077       .  S
Fe1329     O1968   1.986       .  S
O1330      C1337   1.268       .  A
O1331     Fe1958   2.070       .  S
O1331      C1345   1.272       .  A
O1332      C1967   1.264       .  A
O1333      C1966   1.265       .  A
O1334      C1346   1.268       .  A
O1335      C1348   1.270       .  A
C1336      O1963   1.265       .  A
C1336      O1341   1.268       .  A
C1336      C1636   1.471       .  S
C1337      O1962   1.263       .  A
C1337      C1620   1.471       .  S
O1338     Fe1959   1.986       .  S
O1339      C1342   1.270       .  A
O1340      C1342   1.264       .  A
C1342      C1812   1.472       .  S
O1343      C1348   1.262       .  A
O1344     Fe1958   2.066       .  S
O1344      C1346   1.271       .  A
C1345      O1347   1.266       .  A
C1345      C1604   1.493       .  S
C1346      C1588   1.492       .  S
C1348      C1719   1.479       .  S
Fe1349     O1365   2.043       .  S
Fe1349     O1355   2.045   1_554  S
Fe1349     O1362   2.049       .  S
Fe1349     O1354   2.047       .  S
Fe1349     O1360   1.963   1_554  S
Fe1350     O1983   2.055   1_554  S
Fe1350     O1357   2.079       .  S
Fe1350     O1361   2.070       .  S
Fe1350     O1996   2.068   1_554  S
Fe1350     O1360   1.979   1_554  S
Fe1351     O1369   2.054       .  S
Fe1351     O1356   2.058       .  S
Fe1351     O1363   2.071       .  S
Fe1351     O1352   2.069       .  S
Fe1351     O1990   1.989       .  S
O1352      C1359   1.267       .  A
O1353     Fe1980   2.057       .  S
O1353      C1367   1.270       .  A
O1354      C1989   1.269   1_554  A
O1355      C1988   1.264       .  A
O1356      C1368   1.268       .  A
O1357      C1370   1.270       .  A
C1358      O1985   1.263       .  A
C1358      O1363   1.266       .  A
C1358      C1572   1.469       .  S
C1359      O1984   1.269       .  A
C1359      C1639   1.474       .  S
O1360     Fe1981   1.987       .  S
O1361      C1364   1.268       .  A
O1362      C1364   1.264       .  A
C1364      C1735   1.476       .  S
O1365      C1370   1.264       .  A
O1366     Fe1980   2.065       .  S
O1366      C1368   1.268       .  A
C1367      O1369   1.266       .  A
C1367      C1543   1.480       .  S
C1368      C1559   1.493       .  S
C1370      C1668   1.478       .  S
Fe1371     O1387   2.044       .  S
Fe1371     O1377   2.059   1_554  S
Fe1371     O1384   2.053       .  S
Fe1371     O1376   2.043       .  S
Fe1371     O1382   1.959   1_554  S
Fe1372     O2005   2.059   1_554  S
Fe1372     O1379   2.073       .  S
Fe1372     O1383   2.064       .  S
Fe1372     O2018   2.062   1_554  S
Fe1372     O1382   1.970   1_554  S
Fe1373     O1391   2.060       .  S
Fe1373     O1378   2.051       .  S
Fe1373     O1385   2.060       .  S
Fe1373     O1374   2.070       .  S
Fe1373     O2012   1.977       .  S
O1374      C1381   1.268       .  A
O1375     Fe2002   2.057       .  S
O1375      C1389   1.268       .  A
O1376      C2011   1.265   1_554  A
O1377      C2010   1.268       .  A
O1378      C1390   1.265       .  A
O1379      C1392   1.270       .  A
C1380      O2007   1.268       .  A
C1380      O1385   1.266       .  A
C1380      C1623   1.468       .  S
C1381      O2006   1.265       .  A
C1381      C1575   1.469       .  S
O1382     Fe2003   1.978       .  S
O1383      C1386   1.267       .  A
O1384      C1386   1.264       .  A
C1386      C1652   1.476       .  S
O1387      C1392   1.267       .  A
O1388     Fe2002   2.064       .  S
O1388      C1390   1.272       .  A
C1389      O1391   1.267       .  A
C1389      C1508   1.480       .  S
C1390      C1524   1.488       .  S
C1392      C1796   1.466       .  S
Fe1393     O1409   2.038       .  S
Fe1393     O1399   2.035       .  S
Fe1393     O1406   2.035       .  S
Fe1393     O1398   2.040       .  S
Fe1393     O1404   1.966       .  S
Fe1394     O1397   2.073       .  S
Fe1394     O1401   2.075       .  S
Fe1394     O1405   2.083       .  S
Fe1394     O1410   2.058       .  S
Fe1394     O1404   1.978       .  S
Fe1395     O1413   2.063       .  S
Fe1395     O1400   2.061       .  S
Fe1395     O1407   2.080       .  S
Fe1395     O1396   2.080       .  S
Fe1395     O1404   1.989       .  S
O1396      C1403   1.268       .  A
O1397      C1411   1.273       .  A
O1398      C1403   1.266       .  A
O1399      C1402   1.263       .  A
O1400      C1412   1.267       .  A
O1401      C1414   1.269       .  A
C1402      O1407   1.269       .  A
C1402      C1492   1.474       .  S
O1405      C1408   1.270       .  A
O1406      C1408   1.262       .  A
C1408      C1556   1.472       .  S
O1409      C1414   1.262       .  A
O1410      C1412   1.269       .  A
C1411      O1413   1.268       .  A
C1411      C1828   1.495       .  S
C1412      C1767   1.482       .  S
C1414      C1511   1.475       .  S
Fe1415     O1431   2.047       .  S
Fe1415     O1421   2.043       .  S
Fe1415     O1428   2.039       .  S
Fe1415     O1420   2.047       .  S
Fe1415     O1426   1.965       .  S
Fe1416     O1419   2.058       .  S
Fe1416     O1423   2.076       .  S
Fe1416     O1427   2.073       .  S
Fe1416     O1432   2.061       .  S
Fe1416     O1426   1.979       .  S
Fe1417     O1435   2.053       .  S
Fe1417     O1422   2.057       .  S
Fe1417     O1429   2.069       .  S
Fe1417     O1418   2.064       .  S
Fe1417     O1426   1.987       .  S
O1418      C1425   1.266       .  A
O1419      C1433   1.270       .  A
O1420      C1425   1.265       .  A
O1421      C1424   1.265       .  A
O1422      C1434   1.268       .  A
O1423      C1436   1.269       .  A
C1424      O1429   1.267       .  A
C1425      C4015   1.469   1_455  S
O1427      C1430   1.268       .  A
O1428      C1430   1.264       .  A
C1430      C1527   1.470       .  S
O1431      C1436   1.264       .  A
O1432      C1434   1.267       .  A
C1433      O1435   1.266       .  A
C1433      C1751   1.487       .  S
C1434      C1687   1.492       .  S
C1436      C1607   1.476       .  S
Fe1437     O1453   2.038       .  S
Fe1437     O1443   2.051       .  S
Fe1437     O1450   2.051       .  S
Fe1437     O1442   2.040       .  S
Fe1437     O1448   1.967       .  S
Fe1438     O1441   2.067       .  S
Fe1438     O1445   2.075       .  S
Fe1438     O1449   2.075       .  S
Fe1438     O1454   2.067       .  S
Fe1438     O1448   1.982       .  S
Fe1439     O1457   2.061       .  S
Fe1439     O1444   2.066       .  S
Fe1439     O1451   2.075       .  S
Fe1439     O1440   2.074       .  S
Fe1439     O1448   1.987       .  S
O1440      C1447   1.268       .  A
O1441      C1455   1.270       .  A
O1442      C1447   1.265       .  A
O1443      C1446   1.266       .  A
O1444      C1456   1.268       .  A
O1445      C1458   1.269       .  A
C1446      O1451   1.268       .  A
C1446      C3999   1.477   1_455  S
C1447      C1460   1.469       .  S
O1449      C1452   1.269       .  A
O1450      C1452   1.265       .  A
C1452      C1591   1.481       .  S
O1453      C1458   1.263       .  A
O1454      C1456   1.271       .  A
C1455      O1457   1.267       .  A
C1455      C1703   1.488       .  S
C1456      C1844   1.498       .  S
C1458      C1540   1.471       .  S
C1459      C1460   1.402       .  A
C1459      C1464   1.399       .  A
C1459      H1466   1.085       .  S
C1460      C1461   1.412       .  A
C1461      C1462   1.404       .  A
C1461      C1468   1.507       .  S
C1462      C1463   1.403       .  A
C1463      C1464   1.413       .  A
C1464      C1465   1.510       .  S
C1465      H1469   1.111       .  S
C1465      H1470   1.110       .  S
C1465      H1471   1.109       .  S
C1468      H1472   1.110       .  S
C1468      H1473   1.111       .  S
C1468      H1474   1.111       .  S
C1475      C1476   1.403       .  A
C1475      C1480   1.398       .  A
C1475      H1482   1.085       .  S
C1476      C1477   1.412       .  A
C1477      C1478   1.408       .  A
C1477      C1484   1.504       .  S
C1478      C1479   1.405       .  A
C1478      H1483   1.084       .  S
C1479      C3966   1.475       .  S
C1479      C1480   1.413       .  A
C1480      C1481   1.510       .  S
C1481      H1485   1.111       .  S
C1481      H1486   1.110       .  S
C1481      H1487   1.108       .  S
C1484      H1490   1.111       .  S
C1491      C1492   1.404       .  A
C1491      C1496   1.399       .  A
C1491      H1498   1.085       .  S
C1492      C1493   1.412       .  A
C1493      C1494   1.403       .  A
C1493      C1500   1.503       .  S
C1494      C1495   1.402       .  A
C1494      H1499   1.084       .  S
C1495      C3945   1.469       .  S
C1495      C1496   1.411       .  A
C1496      C1497   1.509       .  S
C1497      H1501   1.111       .  S
C1497      H4022   1.108       .  S
C1497      H1503   1.111       .  S
C1500      H1504   1.106       .  S
C1500      H1505   1.110       .  S
C1500      H1506   1.111       .  S
H1502      C4017   1.108       .  S
C1507      C1508   1.403       .  A
C1507      C1512   1.400       .  A
C1507      H1514   1.084       .  S
C1508      C1509   1.418       .  A
C1509      C1510   1.404       .  A
C1509      C1516   1.508       .  S
C1510      C1511   1.402       .  A
C1510      H1515   1.084       .  S
C1511      C1512   1.415       .  A
C1512      C1513   1.510       .  S
C1513      H1517   1.111       .  S
C1513      H1518   1.110       .  S
C1513      H1519   1.109       .  S
C1516      H1520   1.111       .  S
C1516      H1521   1.109       .  S
C1516      H1522   1.111       .  S
C1523      C4044   1.406       .  A
C1523      C1528   1.396   1_655  A
C1523      H1530   1.084       .  S
C1524      C4043   1.406       .  A
C1524      C1525   1.424       .  A
C1525      C1526   1.406       .  A
C1525      C1532   1.509       .  S
C1526      C4047   1.400       .  A
C1526      H1531   1.085       .  S
C1527      C4046   1.400       .  A
C1527      C1528   1.410       .  A
C1528      C1529   1.508       .  S
C1529      H1533   1.111       .  S
C1529      H1534   1.108       .  S
C1529      H1535   1.108       .  S
C1532      H1536   1.109       .  S
C1532      H1537   1.111       .  S
C1532      H1538   1.111       .  S
C1539      C4060   1.401       .  A
C1539      C1544   1.405       .  A
C1539      H1546   1.084       .  S
C1540      C4059   1.401       .  A
C1540      C1541   1.412       .  A
C1541      C1542   1.396   1_455  A
C1541      C1548   1.507       .  S
C1542      C4063   1.403       .  A
C1542      H1547   1.084       .  S
C1543      C4062   1.403       .  A
C1543      C1544   1.419       .  A
C1544      C1545   1.508       .  S
C1545      H1549   1.111       .  S
C1545      H1550   1.111       .  S
C1545      H1551   1.109       .  S
C1548      H1552   1.108       .  S
C1548      H1553   1.108       .  S
C1548      H1554   1.111       .  S
C1555      C1556   1.400       .  A
C1555      H1562   1.085       .  S
C1556      C1557   1.408   1_565  A
C1557      C1564   1.508   1_545  S
C1558      C1559   1.411       .  A
C1558      H1563   1.083       .  S
C1559      C1560   1.422       .  A
C1560      C1561   1.509       .  S
C1561      H1565   1.111       .  S
C1561      H1566   1.110       .  S
C1561      H1567   1.110       .  S
C1564      H1568   1.110       .  S
C1564      H1569   1.111       .  S
C1564      H1570   1.111   1_565  S
C1571      C1572   1.402       .  A
C1571      C1576   1.400       .  A
C1571      H1578   1.084       .  S
C1572      C1573   1.411       .  A
C1573      C1574   1.400       .  A
C1573      C1580   1.502       .  S
C1574      C1575   1.401       .  A
C1574      H1579   1.084       .  S
C1575      C1576   1.413       .  A
C1576      C1577   1.509       .  S
C1577      H1581   1.111       .  S
C1577      H2212   1.108       .  S
C1577      H1583   1.111       .  S
C1580      H2214   1.108       .  S
C1580      H1585   1.110       .  S
C1580      H1586   1.111       .  S
H1582      C2207   1.108       .  S
H1584      C2210   1.108       .  S
C1587      C1588   1.407       .  A
C1587      C1592   1.400       .  A
C1587      H1594   1.084       .  S
C1588      C1589   1.421       .  A
C1589      C1590   1.407       .  A
C1589      C1596   1.508       .  S
C1590      C1591   1.402       .  A
C1590      H1595   1.085       .  S
C1591      C1592   1.414       .  A
C1592      C1593   1.507       .  S
C1593      H1597   1.111       .  S
C1593      H1598   1.108       .  S
C1593      H1599   1.107       .  S
C1596      H1600   1.109       .  S
C1596      H1601   1.110       .  S
C1596      H1602   1.111       .  S
C1603      C1604   1.408       .  A
C1604      C1605   1.425       .  A
C1605      C1606   1.405       .  A
C1605      C1612   1.509       .  S
C1606      H1611   1.085       .  S
C1607      C1608   1.412       .  A
C1608      C1609   1.507       .  S
C1609      H1613   1.111       .  S
C1609      H1614   1.108       .  S
C1609      H1615   1.109       .  S
C1612      H1616   1.110       .  S
C1612      H1617   1.110       .  S
C1612      H1618   1.111       .  S
C1619      C1620   1.402       .  A
C1619      C1624   1.404       .  A
C1619      H1626   1.084       .  S
C1620      C1621   1.414       .  A
C1621      C1622   1.397       .  A
C1621      C1628   1.509       .  S
C1622      C1623   1.401       .  A
C1622      H1627   1.085       .  S
C1623      C1624   1.416       .  A
C1624      C1625   1.508       .  S
C1625      H1629   1.110       .  S
C1625      H1630   1.111       .  S
C1625      H1631   1.106       .  S
C1628      H2262   1.111       .  S
C1628      H1633   1.109       .  S
C1628      H1634   1.110       .  S
H1632      C2258   1.111       .  S
C1635      C1636   1.403       .  A
C1635      C1640   1.407       .  A
C1635      H1642   1.084       .  S
C1636      C2267   1.414       .  A
C1637      C2266   1.414       .  A
C1637      C1638   1.396       .  A
C1637      C1644   1.510   1_556  S
C1638      C2269   1.402       .  A
C1638      H1643   1.085   1_556  S
C1639      C2268   1.401       .  A
C1639      C1640   1.413       .  A
C1640      C1641   1.505       .  S
C1641      H1645   1.111       .  S
C1641      H1646   1.110       .  S
C1641      H1647   1.104       .  S
C1644      H1648   1.110       .  S
C1644      H1649   1.107       .  S
C1644      H1650   1.111       .  S
C1651      C1652   1.401       .  A
C1651      C1656   1.403       .  A
C1651      H1658   1.087       .  S
C1652      C1653   1.413       .  A
C1653      C1654   1.401       .  A
C1653      C1660   1.509       .  S
C1654      C1655   1.407       .  A
C1654      H1659   1.086       .  S
C1655      C1656   1.421       .  A
C1656      C1657   1.509       .  S
C1657      H1661   1.111       .  S
C1657      H1662   1.109       .  S
C1657      H1663   1.111       .  S
C1660      H1664   1.108       .  S
C1660      H1665   1.111       .  S
C1660      H1666   1.111       .  S
C1667      C1668   1.403       .  A
C1667      C1672   1.407       .  A
C1667      H1674   1.085       .  S
C1668      C1669   1.413       .  A
C1669      C1670   1.398       .  A
C1669      C1676   1.509       .  S
C1670      C1671   1.405       .  A
C1670      H1675   1.084       .  S
C1671      C1672   1.420       .  A
C1672      C4193   1.508       .  S
C1673      C4192   1.508   1_455  S
C1673      H1677   1.111       .  S
C1673      H1678   1.110       .  S
C1673      H1679   1.109       .  S
C1676      H1680   1.108       .  S
C1676      H1681   1.109       .  S
C1676      H1682   1.111       .  S
C1683      C1684   1.398       .  A
C1683      C1688   1.401       .  A
C1683      H1690   1.085       .  S
C1684      C1685   1.408       .  A
C1685      C1686   1.402       .  A
C1685      C4212   1.508       .  S
C1686      C1687   1.411       .  A
C1686      H1691   1.083       .  S
C1687      C1688   1.423       .  A
C1688      C1689   1.509       .  S
C1689      H1693   1.111       .  S
C1689      H1694   1.110       .  S
C1689      H1695   1.110       .  S
C1692      C4205   1.508       .  S
C1692      H1696   1.110       .  S
C1692      H1697   1.111       .  S
C1692      H1698   1.111       .  S
C1699      C1700   1.402       .  A
C1699      C1704   1.405       .  A
C1699      H1706   1.084       .  S
C1700      C1701   1.416       .  A
C1701      C1702   1.401       .  A
C1701      C4228   1.510       .  S
C1702      C1703   1.405       .  A
C1702      H1707   1.084       .  S
C1703      C1704   1.420       .  A
C1704      C1705   1.508       .  S
C1705      H1709   1.108       .  S
C1705      H1710   1.111   1_455  S
C1705      H1711   1.111   1_455  S
C1708      C4221   1.510       .  S
C1708      H1712   1.111       .  S
C1708      H4233   1.108       .  S
C1708      H1714   1.111       .  S
H1713      C4228   1.108       .  S
C1715      C1716   1.408       .  A
C1715      C1720   1.400       .  A
C1715      H1722   1.084       .  S
C1716      C1717   1.421       .  A
C1717      C1718   1.408       .  A
C1717      C1724   1.508       .  S
C1718      C1719   1.402       .  A
C1718      H1723   1.085       .  S
C1719      C1720   1.414       .  A
C1720      C1721   1.510       .  S
C1721      H1725   1.111       .  S
C1721      H1726   1.110       .  S
C1721      H1727   1.109       .  S
C1724      H1729   1.109       .  S
C1724      H1730   1.111       .  S
C1731      C1732   1.405       .  A
C1731      C1736   1.400       .  A
C1731      H1738   1.084       .  S
C1732      C1733   1.419       .  A
C1733      C1734   1.405       .  A
C1733      C1740   1.508       .  S
C1734      C1735   1.402       .  A
C1734      H1739   1.084       .  S
C1735      C1736   1.413       .  A
C1736      C1737   1.508       .  S
C1737      H1741   1.111       .  S
C1737      H1742   1.109       .  S
C1737      H1743   1.109       .  S
C1740      H1744   1.109       .  S
C1740      H1746   1.111       .  S
C1747      C1748   1.399       .  A
C1747      C1752   1.404       .  A
C1747      H1754   1.085       .  S
C1748      C1749   1.411       .  A
C1749      C1750   1.397       .  A
C1749      C1756   1.508       .  S
C1750      C1751   1.406       .  A
C1750      H1755   1.084       .  S
C1751      C1752   1.423       .  A
C1752      C1753   1.509       .  S
C1753      H1757   1.111       .  S
C1753      H1758   1.111       .  S
C1753      H1759   1.109       .  S
C1756      H1761   1.108       .  S
C1756      H1762   1.111       .  S
C1763      C1764   1.402       .  A
C1763      C1768   1.406       .  A
C1763      H1770   1.085       .  S
C1764      C1765   1.414       .  A
C1765      C1766   1.398       .  A
C1765      C1772   1.508       .  S
C1766      C1767   1.403       .  A
C1766      H1771   1.085       .  S
C1767      C1768   1.418       .  A
C1768      C1769   1.508       .  S
C1769      H1773   1.111   1_565  S
C1769      H1774   1.109       .  S
C1769      H1775   1.111       .  S
C1772      H1776   1.108       .  S
C1779      C1780   1.399       .  A
C1779      C1784   1.402       .  A
C1779      H1786   1.083       .  S
C1780      C1781   1.410       .  A
C1781      C1782   1.399       .  A
C1781      C1788   1.509       .  S
C1782      C1783   1.404       .  A
C1782      H1787   1.085       .  S
C1783      C1784   1.416       .  A
C1784      C1785   1.507       .  S
C1785      H1789   1.111       .  S
C1785      H1790   1.111       .  S
C1785      H1791   1.110       .  S
C1788      H1792   1.109       .  S
C1788      H1793   1.110       .  S
C1788      H1794   1.111       .  S
C1795      C1796   1.398       .  A
C1795      C1800   1.402       .  A
C1795      H1802   1.085       .  S
C1796      C1797   1.407       .  A
C1797      C1798   1.402       .  A
C1797      C1804   1.508       .  S
C1798      C1799   1.410       .  A
C1798      H1803   1.083       .  S
C1799      C1800   1.423       .  A
C1800      C1801   1.509       .  S
C1801      H1805   1.111       .  S
C1801      H1806   1.110       .  S
C1801      H1807   1.111       .  S
C1804      H1808   1.111       .  S
C1804      H1809   1.110       .  S
C1804      H1810   1.111       .  S
C1811      C1812   1.399       .  A
C1811      C1816   1.403       .  A
C1811      H1818   1.085       .  S
C1812      C1813   1.408       .  A
C1813      C1814   1.405       .  A
C1813      C1820   1.508       .  S
C1814      C1815   1.412       .  A
C1814      H1819   1.083       .  S
C1815      C1816   1.424       .  A
C1816      C1817   1.509       .  S
C1817      H1821   1.111       .  S
C1817      H1822   1.110       .  S
C1817      H1823   1.110       .  S
C1820      H1824   1.110       .  S
C1820      H1825   1.110       .  S
C1820      H1826   1.111       .  S
C1827      C1828   1.408       .  A
C1827      C1832   1.402       .  A
C1827      H1834   1.084       .  S
C1828      C1829   1.424       .  A
C1829      C1830   1.407       .  A
C1829      C1836   1.509       .  S
C1830      C1831   1.401       .  A
C1830      H1835   1.085       .  S
C1831      C1832   1.412       .  A
C1832      C1833   1.509       .  S
C1833      H1837   1.111       .  S
C1833      H1838   1.109       .  S
C1833      H1839   1.109       .  S
C1836      H1840   1.110       .  S
C1836      H1841   1.110       .  S
C1836      H1842   1.111       .  S
C1843      C1844   1.410       .  A
C1843      C1848   1.402       .  A
C1843      H1850   1.084       .  S
C1844      C1845   1.425       .  A
C1845      C1846   1.408       .  A
C1845      C1852   1.509       .  S
C1846      C1847   1.400       .  A
C1846      H1851   1.085       .  S
C1847      C1848   1.409       .  A
C1848      C1849   1.507       .  S
C1849      H1853   1.111       .  S
C1849      H1854   1.109       .  S
C1849      H1855   1.111       .  S
C1852      H1856   1.109       .  S
C1852      H1857   1.111       .  S
C1852      H1858   1.111       .  S
C1859      C1860   1.402       .  A
C1859      C1864   1.407       .  A
C1859      H1866   1.084       .  S
C1860      C1861   1.413       .  A
C1861      C1862   1.401       .  A
C1861      C1868   1.508       .  S
C1862      C1863   1.402       .  A
C1862      H1867   1.085       .  S
C1863      C1864   1.415       .  A
C1864      C1865   1.505       .  S
C1865      H1869   1.111       .  S
C1865      H1870   1.108       .  S
C1865      H1871   1.110       .  S
C1868      H1872   1.107       .  S
C1868      H1873   1.111       .  S
C1868      H1874   1.111       .  S
C1875      C1876   1.402       .  A
C1875      C1880   1.404       .  A
C1875      H1882   1.083       .  S
C1876      C1877   1.412       .  A
C1877      C1878   1.402       .  A
C1877      C1884   1.509       .  S
C1878      C1879   1.403       .  A
C1878      H1883   1.084       .  S
C1879      C1880   1.413       .  A
C1880      C1881   1.507       .  S
C1881      H1885   1.111       .  S
C1881      H1886   1.110       .  S
C1881      H1887   1.110       .  S
C1884      H1888   1.109       .  S
C1884      H1889   1.110       .  S
C1884      H1890   1.111       .  S
Fe1891     O1907   2.048       .  S
Fe1891     O1897   2.053       .  S
Fe1891     O1904   2.050       .  S
Fe1891     O1896   2.050       .  S
Fe1891     O1902   1.967       .  S
Fe1892     O1895   2.062       .  S
Fe1892     O1899   2.082       .  S
Fe1892     O1903   2.081       .  S
Fe1892     O1908   2.066       .  S
Fe1892     O1902   1.981       .  S
Fe1893     O1911   2.061       .  S
Fe1893     O1898   2.068       .  S
Fe1893     O1905   2.076       .  S
Fe1893     O1894   2.072       .  S
Fe1893     O1902   1.986       .  S
O1894      C1901   1.268       .  A
O1895      C1909   1.268       .  A
O1896      C1901   1.267       .  A
O1897      C1900   1.267       .  A
O1898      C1910   1.270       .  A
O1899      C1912   1.270       .  A
C1900      O1905   1.269       .  A
C1900      C2493   1.480       .  S
C1901      C2506   1.471       .  S
O1903      C1906   1.269       .  A
O1904      C1906   1.265       .  A
C1906      C2477   1.477       .  S
O1907      C1912   1.264       .  A
O1908      C1910   1.269       .  A
C1909      O1911   1.270       .  A
C1909      C2429   1.493       .  S
C1910      C2445   1.495       .  S
C1912      C2461   1.481       .  S
Fe1913     O1929   2.042       .  S
Fe1913     O1919   2.042       .  S
Fe1913     O1926   2.036       .  S
Fe1913     O1918   2.052       .  S
Fe1913     O1924   1.960       .  S
Fe1914     O1917   2.070       .  S
Fe1914     O1925   2.084       .  S
Fe1914     O1930   2.056       .  S
Fe1915     O1933   2.068       .  S
Fe1915     O1920   2.063       .  S
Fe1915     O1927   2.073       .  S
Fe1915     O1916   2.077       .  S
Fe1915     O1924   1.978       .  S
O1916      C1923   1.270       .  A
O1917      C1931   1.273       .  A
O1918      C1923   1.267       .  A
O1919      C1922   1.265       .  A
O1921      C1934   1.267       .  A
C1922      O1927   1.268       .  A
C1922      C2413   1.473       .  S
C1923      C2490   1.472       .  S
O1926      C1928   1.263       .  A
C1928      C2394   1.475       .  S
O1929      C1934   1.263       .  A
O1930      C1932   1.268       .  A
C1931      C2346   1.493       .  S
C1932      C2362   1.482       .  S
C1934      C2378   1.470       .  S
Fe1935     O1951   2.044       .  S
Fe1935     O1941   2.045       .  S
Fe1935     O1948   2.040       .  S
Fe1935     O1940   2.047       .  S
Fe1935     O1946   1.966       .  S
Fe1936     O1939   2.063       .  S
Fe1936     O4463   2.078       .  S
Fe1936     O4467   2.070       .  S
Fe1936     O1952   2.059       .  S
Fe1936     O4466   1.977       .  S
Fe1937     O1955   2.062       .  S
Fe1937     O1942   2.061       .  S
Fe1937     O1949   2.078       .  S
Fe1937     O1938   2.065       .  S
Fe1937     O1946   1.987       .  S
O1938      C1945   1.266       .  A
O1939      C1953   1.272       .  A
O1940      C1945   1.266       .  A
O1941      C1944   1.265       .  A
O1942      C4474   1.267       .  A
O1943     Fe4456   2.080       .  S
O1943      C1956   1.270       .  A
C1944      O1949   1.269       .  A
C1944      C2509   1.474       .  S
C1945      C2410   1.465       .  S
O1946     Fe4456   1.979       .  S
O1947     Fe4456   2.070       .  S
O1947      C1950   1.268       .  A
O1948      C1950   1.263       .  A
C1950      C2314   1.467       .  S
O1951      C1956   1.264       .  A
O1952      C1954   1.268       .  A
C1953      O4475   1.268       .  A
C1953      C2301   1.489       .  S
C1954      O4462   1.266       .  A
C1954      C2285   1.487       .  S
O1955      C4473   1.268       .  A
C1956      C2330   1.481       .  S
Fe1957     O1973   2.037       .  S
Fe1957     O1963   2.042       .  S
Fe1957     O1970   2.044       .  S
Fe1957     O1962   2.036       .  S
Fe1957     O1968   1.967       .  S
Fe1958     O1965   2.083       .  S
Fe1958     O1969   2.081       .  S
Fe1958     O1968   1.976       .  S
Fe1959     O1977   2.059       .  S
Fe1959     O1964   2.064       .  S
Fe1959     O1971   2.075       .  S
Fe1959     O1960   2.079       .  S
O1960      C1967   1.268       .  A
O1961      C1975   1.271       .  A
O1964      C1976   1.269       .  A
O1965      C1978   1.270       .  A
C1966      O1971   1.269       .  A
C1966      C2266   1.471       .  S
C1967      C2250   1.473       .  S
O1969      C1972   1.271       .  A
O1970      C1972   1.265       .  A
C1972      C2442   1.475       .  S
O1973      C1978   1.262       .  A
O1974      C1976   1.271       .  A
C1975      O1977   1.266       .  A
C1975      C2234   1.491       .  S
C1976      C2218   1.490       .  S
C1978      C2349   1.479       .  S
Fe1979     O1995   2.045       .  S
Fe1979     O1985   2.042       .  S
Fe1979     O1992   2.046       .  S
Fe1979     O1984   2.048       .  S
Fe1979     O1990   1.964       .  S
Fe1980     O1987   2.076       .  S
Fe1980     O1991   2.072       .  S
Fe1980     O1990   1.979       .  S
Fe1981     O1999   2.056       .  S
Fe1981     O1986   2.053       .  S
Fe1981     O1993   2.068       .  S
Fe1981     O1982   2.072       .  S
O1982      C1989   1.268       .  A
O1983      C1997   1.269       .  A
O1986      C1998   1.268       .  A
O1987      C2000   1.269       .  A
C1988      O1993   1.266       .  A
C1988      C2202   1.468       .  S
C1989      C2269   1.477       .  S
O1991      C1994   1.268       .  A
O1992      C1994   1.264       .  A
C1994      C2365   1.475       .  S
O1995      C2000   1.264       .  A
O1996      C1998   1.268       .  A
C1997      O1999   1.267       .  A
C1997      C2173   1.480       .  S
C1998      C2189   1.494       .  S
C2000      C2298   1.479       .  S
Fe2001     O2017   2.043       .  S
Fe2001     O2007   2.058       .  S
Fe2001     O2014   2.050       .  S
Fe2001     O2006   2.044       .  S
Fe2001     O2012   1.958       .  S
Fe2002     O2009   2.075       .  S
Fe2002     O2013   2.064       .  S
Fe2002     O2012   1.969       .  S
Fe2003     O2021   2.062       .  S
Fe2003     O2008   2.052       .  S
Fe2003     O2015   2.062       .  S
Fe2003     O2004   2.070       .  S
O2004      C2011   1.268       .  A
O2005      C2019   1.268       .  A
O2008      C2020   1.265       .  A
O2009      C2022   1.270       .  A
C2010      O2015   1.266       .  A
C2010      C2253   1.469       .  S
C2011      C2205   1.468       .  S
O2013      C2016   1.267       .  A
O2014      C2016   1.264       .  A
C2016      C2282   1.474       .  S
O2017      C2022   1.267       .  A
O2018      C2020   1.271       .  A
C2019      O2021   1.267       .  A
C2019      C2138   1.482       .  S
C2020      C2154   1.487       .  S
C2022      C2426   1.467       .  S
Fe2023     O2039   2.038       .  S
Fe2023     O2029   2.037       .  S
Fe2023     O2036   2.037       .  S
Fe2023     O2028   2.040       .  S
Fe2023     O2034   1.967       .  S
Fe2024     O2027   2.073       .  S
Fe2024     O2031   2.077       .  S
Fe2024     O2035   2.083       .  S
Fe2024     O2040   2.060       .  S
Fe2024     O2034   1.979       .  S
Fe2025     O2043   2.066       .  S
Fe2025     O2030   2.058       .  S
Fe2025     O2037   2.076       .  S
Fe2025     O2026   2.080       .  S
Fe2025     O2034   1.989       .  S
O2026      C2033   1.269       .  A
O2027      C2041   1.273       .  A
O2028      C2033   1.266       .  A
O2029      C2032   1.264       .  A
O2030      C2042   1.267       .  A
O2031      C2044   1.270       .  A
C2032      O2037   1.268       .  A
C2032      C2122   1.471       .  S
O2035      C2038   1.270       .  A
O2036      C2038   1.263       .  A
C2038      C2186   1.472       .  S
O2039      C2044   1.262       .  A
O2040      C2042   1.269       .  A
C2041      O2043   1.269       .  A
C2041      C2458   1.497       .  S
C2042      C2397   1.483       .  S
C2044      C2141   1.476       .  S
Fe2045     O2061   2.050       .  S
Fe2045     O2051   2.041       .  S
Fe2045     O2058   2.034       .  S
Fe2045     O2050   2.049       .  S
Fe2045     O2056   1.966       .  S
Fe2046     O2049   2.060       .  S
Fe2046     O2053   2.075       .  S
Fe2046     O2057   2.075       .  S
Fe2046     O2062   2.061       .  S
Fe2046     O2056   1.978       .  S
Fe2047     O2065   2.053       .  S
Fe2047     O2052   2.061       .  S
Fe2047     O2059   2.073       .  S
Fe2047     O2048   2.063       .  S
Fe2047     O2056   1.987       .  S
O2048      C2055   1.266       .  A
O2049      C2063   1.271       .  A
O2050      C2055   1.266       .  A
O2051      C2054   1.264       .  A
O2052      C2064   1.269       .  A
O2053      C2066   1.269       .  A
C2054      O2059   1.268       .  A
C2055      C4645   1.469   1_455  S
O2057      C2060   1.269       .  A
O2058      C2060   1.263       .  A
C2060      C2157   1.470       .  S
O2061      C2066   1.264       .  A
O2062      C2064   1.267       .  A
C2063      O2065   1.266       .  A
C2063      C2381   1.488       .  S
C2064      C2317   1.494       .  S
C2066      C2237   1.477       .  S
Fe2067     O2083   2.038       .  S
Fe2067     O2073   2.050       .  S
Fe2067     O2080   2.050       .  S
Fe2067     O2072   2.040       .  S
Fe2067     O2078   1.966       .  S
Fe2068     O2071   2.067       .  S
Fe2068     O2075   2.073       .  S
Fe2068     O2079   2.075       .  S
Fe2068     O2084   2.064       .  S
Fe2068     O2078   1.982       .  S
Fe2069     O2087   2.061       .  S
Fe2069     O2074   2.071       .  S
Fe2069     O2081   2.077       .  S
Fe2069     O2070   2.073       .  S
Fe2069     O2078   1.988       .  S
O2070      C2077   1.268       .  A
O2071      C2085   1.270       .  A
O2072      C2077   1.264       .  A
O2073      C2076   1.266       .  A
O2074      C2086   1.269       .  A
O2075      C2088   1.269       .  A
C2076      O2081   1.269       .  A
C2076      C4629   1.477   1_455  S
C2077      C2090   1.469       .  S
O2079      C2082   1.269       .  A
O2080      C2082   1.265       .  A
C2082      C2221   1.479       .  S
O2083      C2088   1.263       .  A
O2084      C2086   1.270       .  A
C2085      O2087   1.267       .  A
C2085      C2333   1.488       .  S
C2086      C2474   1.495       .  S
C2088      C2170   1.473       .  S
C2089      C2090   1.402       .  A
C2089      C2094   1.399       .  A
C2089      H2096   1.085       .  S
C2090      C2091   1.412       .  A
C2091      C2092   1.404       .  A
C2091      C2098   1.507       .  S
C2092      C2093   1.403       .  A
C2093      C2094   1.413       .  A
C2094      C2095   1.510       .  S
C2095      H2099   1.111       .  S
C2095      H2100   1.110       .  S
C2095      H2101   1.109       .  S
C2098      H2102   1.110       .  S
C2098      H2103   1.111       .  S
C2098      H2104   1.111       .  S
C2105      C2106   1.403       .  A
C2105      C2110   1.399       .  A
C2105      H2112   1.085       .  S
C2106      C2107   1.411       .  A
C2107      C2108   1.408       .  A
C2107      C2114   1.503       .  S
C2108      C2109   1.406       .  A
C2108      H2113   1.084       .  S
C2109      C4596   1.477       .  S
C2109      C2110   1.414       .  A
C2110      C2111   1.510       .  S
C2111      H2115   1.111       .  S
C2111      H2116   1.110       .  S
C2111      H2117   1.108       .  S
C2114      H2120   1.111       .  S
C2121      C2122   1.404       .  A
C2121      C2126   1.399       .  A
C2121      H2128   1.084       .  S
C2122      C2123   1.412       .  A
C2123      C2124   1.402       .  A
C2123      C2130   1.503       .  S
C2124      C2125   1.402       .  A
C2124      H2129   1.084       .  S
C2125      C4575   1.467       .  S
C2125      C2126   1.411       .  A
C2126      C2127   1.509       .  S
C2127      H2131   1.111       .  S
C2127      H4652   1.109       .  S
C2127      H2133   1.110       .  S
C2130      H2134   1.107       .  S
C2130      H2135   1.110       .  S
C2130      H2136   1.111       .  S
H2132      C4647   1.108       .  S
C2137      C2138   1.404       .  A
C2137      C2142   1.400       .  A
C2137      H2144   1.084       .  S
C2138      C2139   1.418       .  A
C2139      C2140   1.404       .  A
C2139      C2146   1.508       .  S
C2140      C2141   1.402       .  A
C2140      H2145   1.084       .  S
C2141      C2142   1.416       .  A
C2142      C2143   1.510       .  S
C2143      H2147   1.111       .  S
C2143      H2148   1.110       .  S
C2143      H2149   1.109       .  S
C2146      H2150   1.111       .  S
C2146      H2151   1.109       .  S
C2146      H2152   1.111       .  S
C2153      C4674   1.406       .  A
C2153      C2158   1.395   1_655  A
C2153      H2160   1.084       .  S
C2154      C4673   1.406       .  A
C2154      C2155   1.423       .  A
C2155      C2156   1.405       .  A
C2155      C2162   1.509       .  S
C2156      C4677   1.400       .  A
C2156      H2161   1.085       .  S
C2157      C4676   1.400       .  A
C2157      C2158   1.410       .  A
C2158      C2159   1.508       .  S
C2159      H2163   1.111       .  S
C2159      H2164   1.108       .  S
C2159      H2165   1.108       .  S
C2162      H2166   1.109       .  S
C2162      H2167   1.111       .  S
C2162      H2168   1.111       .  S
C2169      C4690   1.401       .  A
C2169      C2174   1.404       .  A
C2169      H2176   1.084       .  S
C2170      C4689   1.402       .  A
C2170      C2171   1.414       .  A
C2171      C2172   1.396   1_455  A
C2171      C2178   1.507       .  S
C2172      C4693   1.403       .  A
C2172      H2177   1.084       .  S
C2173      C4692   1.403       .  A
C2173      C2174   1.419       .  A
C2174      C2175   1.508       .  S
C2175      H2179   1.111       .  S
C2175      H2180   1.111       .  S
C2175      H2181   1.109       .  S
C2178      H2182   1.107       .  S
C2178      H2183   1.108       .  S
C2178      H2184   1.111       .  S
C2185      C2186   1.401       .  A
C2185      H2192   1.084       .  S
C2186      C2187   1.408   1_565  A
C2187      C2194   1.508   1_545  S
C2188      C2189   1.412       .  A
C2188      H2193   1.083       .  S
C2189      C2190   1.423       .  A
C2190      C2191   1.509       .  S
C2191      H2195   1.111       .  S
C2191      H2196   1.110   1_556  S
C2191      H2197   1.110       .  S
C2194      H2198   1.110       .  S
C2194      H2199   1.111       .  S
C2194      H2200   1.111   1_565  S
C2201      C2202   1.401       .  A
C2201      C2206   1.400       .  A
C2201      H2208   1.084       .  S
C2202      C2203   1.411       .  A
C2203      C2204   1.400       .  A
C2203      C2210   1.502       .  S
C2204      C2205   1.401       .  A
C2204      H2209   1.084       .  S
C2205      C2206   1.413       .  A
C2206      C2207   1.509   1_556  S
C2207      H2211   1.111       .  S
C2207      H2213   1.110   1_554  S
C2210      H2215   1.110       .  S
C2210      H2216   1.111       .  S
C2217      C2218   1.406       .  A
C2217      C2222   1.399       .  A
C2217      H2224   1.084       .  S
C2218      C2219   1.421       .  A
C2219      C2220   1.406       .  A
C2219      C2226   1.508       .  S
C2220      C2221   1.402       .  A
C2220      H2225   1.085       .  S
C2221      C2222   1.413       .  A
C2222      C2223   1.507       .  S
C2223      H2227   1.111       .  S
C2223      H2228   1.108       .  S
C2223      H2229   1.107       .  S
C2226      H2230   1.109       .  S
C2226      H2231   1.111       .  S
C2226      H2232   1.111       .  S
C2233      C2234   1.407       .  A
C2234      C2235   1.423       .  A
C2235      C2236   1.405       .  A
C2235      C2242   1.509       .  S
C2236      H2241   1.085       .  S
C2237      C2238   1.412       .  A
C2238      C2239   1.506       .  S
C2239      H2243   1.111       .  S
C2239      H2244   1.109       .  S
C2239      H2245   1.109       .  S
C2242      H2246   1.110       .  S
C2242      H2247   1.109       .  S
C2242      H2248   1.111       .  S
C2249      C2250   1.402       .  A
C2249      C2254   1.405       .  A
C2249      H2256   1.084       .  S
C2250      C2251   1.414       .  A
C2251      C2252   1.397       .  A
C2251      C2258   1.509   1_556  S
C2252      C2253   1.401       .  A
C2252      H2257   1.085   1_556  S
C2253      C2254   1.416       .  A
C2254      C2255   1.508       .  S
C2255      H2259   1.111       .  S
C2255      H2260   1.110       .  S
C2255      H2261   1.106       .  S
C2258      H2263   1.109       .  S
C2258      H2264   1.110       .  S
C2265      C2266   1.402       .  A
C2265      C2270   1.407       .  A
C2265      H2272   1.084       .  S
C2267      C2268   1.396       .  A
C2267      C2274   1.510       .  S
C2268      H2273   1.085       .  S
C2269      C2270   1.415       .  A
C2270      C2271   1.505       .  S
C2271      H2275   1.111       .  S
C2271      H2276   1.110       .  S
C2271      H2277   1.103       .  S
C2274      H2278   1.110       .  S
C2274      H2279   1.107       .  S
C2274      H2280   1.111       .  S
C2281      C2282   1.401       .  A
C2281      C2286   1.403       .  A
C2281      H2288   1.087       .  S
C2282      C2283   1.413       .  A
C2283      C2284   1.400       .  A
C2283      C2290   1.510       .  S
C2284      C2285   1.406       .  A
C2284      H2289   1.086       .  S
C2285      C2286   1.421       .  A
C2286      C2287   1.509       .  S
C2287      H2291   1.111       .  S
C2287      H2292   1.109       .  S
C2287      H2293   1.110       .  S
C2290      H2294   1.108       .  S
C2290      H2295   1.110       .  S
C2290      H2296   1.111       .  S
C2297      C2298   1.404       .  A
C2297      C2302   1.407       .  A
C2297      H2304   1.085       .  S
C2298      C2299   1.414       .  A
C2299      C2300   1.398       .  A
C2299      C2306   1.508       .  S
C2300      C2301   1.406       .  A
C2300      H2305   1.084       .  S
C2301      C2302   1.420       .  A
C2302      C4823   1.508       .  S
C2303      C4822   1.508   1_455  S
C2303      H2307   1.111       .  S
C2303      H2308   1.110       .  S
C2303      H2309   1.109       .  S
C2306      H2310   1.107       .  S
C2306      H2311   1.109       .  S
C2306      H2312   1.111       .  S
C2313      C2314   1.398       .  A
C2313      C2318   1.402       .  A
C2313      H2320   1.085       .  S
C2314      C2315   1.408       .  A
C2315      C2316   1.403       .  A
C2315      C4842   1.508       .  S
C2316      C2317   1.412       .  A
C2316      H2321   1.083       .  S
C2317      C2318   1.424       .  A
C2318      C2319   1.509       .  S
C2319      H2323   1.111       .  S
C2319      H2324   1.110       .  S
C2319      H2325   1.110       .  S
C2322      C4835   1.508       .  S
C2322      H2326   1.110       .  S
C2322      H2327   1.111       .  S
C2322      H2328   1.111       .  S
C2329      C2330   1.402       .  A
C2329      C2334   1.406       .  A
C2329      H2336   1.084       .  S
C2330      C2331   1.416       .  A
C2331      C2332   1.401       .  A
C2331      C4858   1.510       .  S
C2332      C2333   1.405       .  A
C2332      H2337   1.084       .  S
C2333      C2334   1.420       .  A
C2334      C2335   1.508       .  S
C2335      H2339   1.108       .  S
C2335      H2340   1.111   1_455  S
C2335      H2341   1.111   1_455  S
C2338      C4851   1.510       .  S
C2338      H2342   1.111       .  S
C2338      H4863   1.108       .  S
C2338      H2344   1.111       .  S
H2343      C4858   1.108       .  S
C2345      C2346   1.407       .  A
C2345      C2350   1.400       .  A
C2345      H2352   1.084       .  S
C2346      C2347   1.421       .  A
C2347      C2348   1.408       .  A
C2347      C2354   1.508       .  S
C2348      C2349   1.402       .  A
C2348      H2353   1.084       .  S
C2349      C2350   1.414       .  A
C2350      C2351   1.510       .  S
C2351      H2355   1.111       .  S
C2351      H2356   1.111       .  S
C2351      H2357   1.109       .  S
C2354      H2359   1.109       .  S
C2354      H2360   1.111       .  S
C2361      C2362   1.404       .  A
C2361      C2366   1.399       .  A
C2361      H2368   1.084       .  S
C2362      C2363   1.418       .  A
C2363      C2364   1.405       .  A
C2363      C2370   1.508       .  S
C2364      C2365   1.402       .  A
C2364      H2369   1.085       .  S
C2365      C2366   1.413       .  A
C2366      C2367   1.507       .  S
C2367      H2371   1.111       .  S
C2367      H2372   1.109       .  S
C2367      H2373   1.108       .  S
C2370      H2374   1.109       .  S
C2370      H2376   1.111       .  S
C2377      C2378   1.400       .  A
C2377      C2382   1.405       .  A
C2377      H2384   1.085       .  S
C2378      C2379   1.410       .  A
C2379      C2380   1.396       .  A
C2379      C2386   1.508       .  S
C2380      C2381   1.406       .  A
C2380      H2385   1.084       .  S
C2381      C2382   1.423       .  A
C2382      C2383   1.509       .  S
C2383      H2387   1.111       .  S
C2383      H2388   1.110       .  S
C2383      H2389   1.110       .  S
C2386      H2391   1.109       .  S
C2386      H2392   1.111       .  S
C2393      C2394   1.402       .  A
C2393      C2398   1.405       .  A
C2393      H2400   1.085       .  S
C2394      C2395   1.414       .  A
C2395      C2396   1.399       .  A
C2395      C2402   1.508       .  S
C2396      C2397   1.404       .  A
C2396      H2401   1.085       .  S
C2397      C2398   1.419       .  A
C2398      C2399   1.508       .  S
C2399      H2403   1.111   1_565  S
C2399      H2404   1.109       .  S
C2399      H2405   1.111       .  S
C2402      H2406   1.108       .  S
C2409      C2410   1.399       .  A
C2409      C2414   1.402       .  A
C2409      H2416   1.083       .  S
C2410      C2411   1.410       .  A
C2411      C2412   1.400       .  A
C2411      C2418   1.509       .  S
C2412      C2413   1.404       .  A
C2412      H2417   1.085       .  S
C2413      C2414   1.415       .  A
C2414      C2415   1.507       .  S
C2415      H2419   1.111       .  S
C2415      H2420   1.110       .  S
C2415      H2421   1.110       .  S
C2418      H2422   1.109       .  S
C2418      H2423   1.110       .  S
C2418      H2424   1.111       .  S
C2425      C2426   1.398       .  A
C2425      C2430   1.402       .  A
C2425      H2432   1.085       .  S
C2426      C2427   1.407       .  A
C2427      C2428   1.403       .  A
C2427      C2434   1.508       .  S
C2428      C2429   1.411       .  A
C2428      H2433   1.083       .  S
C2429      C2430   1.424       .  A
C2430      C2431   1.509       .  S
C2431      H2435   1.111       .  S
C2431      H2436   1.110       .  S
C2431      H2437   1.111       .  S
C2434      H2438   1.111       .  S
C2434      H2439   1.110       .  S
C2434      H2440   1.111       .  S
C2441      C2442   1.401       .  A
C2441      C2446   1.404       .  A
C2441      H2448   1.085       .  S
C2442      C2443   1.409       .  A
C2443      C2444   1.405       .  A
C2443      C2450   1.508       .  S
C2444      C2445   1.411       .  A
C2444      H2449   1.083       .  S
C2445      C2446   1.423       .  A
C2446      C2447   1.509       .  S
C2447      H2451   1.111       .  S
C2447      H2452   1.110       .  S
C2447      H2453   1.110       .  S
C2450      H2454   1.110       .  S
C2450      H2455   1.110       .  S
C2450      H2456   1.111       .  S
C2457      C2458   1.408       .  A
C2457      C2462   1.402       .  A
C2457      H2464   1.084       .  S
C2458      C2459   1.424       .  A
C2459      C2460   1.408       .  A
C2459      C2466   1.509       .  S
C2460      C2461   1.401       .  A
C2460      H2465   1.085       .  S
C2461      C2462   1.413       .  A
C2462      C2463   1.508       .  S
C2463      H2467   1.111       .  S
C2463      H2468   1.109       .  S
C2463      H2469   1.109       .  S
C2466      H2470   1.110       .  S
C2466      H2471   1.110       .  S
C2466      H2472   1.111       .  S
C2473      C2474   1.408       .  A
C2473      C2478   1.401       .  A
C2473      H2480   1.084       .  S
C2474      C2475   1.423       .  A
C2475      C2476   1.409       .  A
C2475      C2482   1.508       .  S
C2476      C2477   1.402       .  A
C2476      H2481   1.085       .  S
C2477      C2478   1.410       .  A
C2478      C2479   1.507       .  S
C2479      H2483   1.111       .  S
C2479      H2484   1.109       .  S
C2479      H2485   1.110       .  S
C2482      H2486   1.109       .  S
C2482      H2487   1.111       .  S
C2482      H2488   1.111       .  S
C2489      C2490   1.401       .  A
C2489      C2494   1.407       .  A
C2489      H2496   1.084       .  S
C2490      C2491   1.412       .  A
C2491      C2492   1.401       .  A
C2491      C2498   1.508       .  S
C2492      C2493   1.403       .  A
C2492      H2497   1.084       .  S
C2493      C2494   1.416       .  A
C2494      C2495   1.505       .  S
C2495      H2499   1.111       .  S
C2495      H2500   1.108       .  S
C2495      H2501   1.110       .  S
C2498      H2502   1.108       .  S
C2498      H2503   1.111       .  S
C2498      H2504   1.111       .  S
C2505      C2506   1.402       .  A
C2505      C2510   1.405       .  A
C2505      H2512   1.083       .  S
C2506      C2507   1.411       .  A
C2507      C2508   1.401       .  A
C2507      C2514   1.508       .  S
C2508      C2509   1.403       .  A
C2508      H2513   1.084       .  S
C2509      C2510   1.414       .  A
C2510      C2511   1.506       .  S
C2511      H2515   1.111       .  S
C2511      H2516   1.110       .  S
C2511      H2517   1.110       .  S
C2514      H2518   1.109       .  S
C2514      H2519   1.110       .  S
C2514      H2520   1.111       .  S
Fe2521     O2537   2.039       .  S
Fe2521     O2527   2.061       .  S
Fe2521     O2534   2.058       .  S
Fe2521     O2526   2.044       .  S
Fe2521     O2532   1.965       .  S
Fe2522     O2525   2.057       .  S
Fe2522     O2529   2.083       .  S
Fe2522     O2533   2.070       .  S
Fe2522     O2538   2.069       .  S
Fe2522     O2532   1.977       .  S
Fe2523     O2541   2.066       .  S
Fe2523     O2528   2.063       .  S
Fe2523     O2535   2.072       .  S
Fe2523     O2524   2.075       .  S
Fe2523     O2532   1.982       .  S
O2524      C2531   1.269       .  A
O2525      C2539   1.267       .  A
O2526      C2531   1.265       .  A
O2527      C2530   1.269       .  A
O2528      C2540   1.270       .  A
O2529      C2542   1.270       .  A
C2530      O2535   1.269       .  A
C2530      C3123   1.478       .  S
C2531      C3136   1.471       .  S
O2533      C2536   1.268       .  A
O2534      C2536   1.266       .  A
C2536      C3107   1.473       .  S
O2537      C2542   1.263       .  A
O2538      C2540   1.269       .  A
C2539      O2541   1.271       .  A
C2539      C3059   1.488       .  S
C2540      C3075   1.498       .  S
C2542      C3091   1.474       .  S
Fe2543     O2559   2.040       .  S
Fe2543     O2549   2.039       .  S
Fe2543     O2556   2.033       .  S
Fe2543     O2548   2.051       .  S
Fe2543     O2554   1.957       .  S
Fe2544     O2547   2.073   1_565  S
Fe2544     O3811   2.069       .  S
Fe2544     O2555   2.085       .  S
Fe2544     O2560   2.057   1_565  S
Fe2544     O3814   1.972       .  S
Fe2545     O2563   2.069       .  S
Fe2545     O2550   2.059       .  S
Fe2545     O2557   2.072       .  S
Fe2545     O2546   2.081       .  S
Fe2545     O2554   1.976       .  S
O2546      C2553   1.271       .  A
O2547      C2561   1.274       .  A
O2548      C2553   1.266       .  A
O2549      C2552   1.264       .  A
O2550      C3822   1.266       .  A
O2551     Fe3804   2.069       .  S
O2551      C2564   1.267       .  A
C2552      O2557   1.268       .  A
C2552      C3043   1.472       .  S
C2553      C3120   1.474       .  S
O2554     Fe3804   1.972       .  S
O2555      C3818   1.272       .  A
O2556      C2558   1.263       .  A
C2558      O3815   1.272       .  A
C2558      C3024   1.476       .  S
O2559      C2564   1.262       .  A
O2560      C2562   1.268       .  A
C2561      O3823   1.271   1_545  A
C2561      C2976   1.496       .  S
C2562      O3810   1.267   1_545  A
C2562      C2992   1.484       .  S
O2563      C3821   1.271       .  A
C2564      C3008   1.471       .  S
Fe2565     O2581   2.048       .  S
Fe2565     O2571   2.042       .  S
Fe2565     O2578   2.036       .  S
Fe2565     O2570   2.049       .  S
Fe2565     O2576   1.962       .  S
Fe2566     O2569   2.063   1_455  S
Fe2566     O2582   2.059   1_455  S
Fe2567     O2585   2.060       .  S
Fe2567     O2572   2.061       .  S
Fe2567     O2579   2.078       .  S
Fe2567     O2568   2.061       .  S
Fe2567     O2576   1.984       .  S
O2568      C2575   1.266       .  A
O2569      C2583   1.271   1_655  A
O2570      C2575   1.267       .  A
O2571      C2574   1.265       .  A
O2573      C2586   1.270       .  A
C2574      O2579   1.269       .  A
C2574      C3139   1.471       .  S
C2575      C3040   1.463       .  S
O2577      C2580   1.268       .  A
O2578      C2580   1.263       .  A
C2580      C2944   1.468       .  S
O2581      C2586   1.264       .  A
O2582      C2584   1.268   1_655  A
C2583      C2931   1.489   1_455  S
C2584      C2915   1.487   1_455  S
C2586      C2960   1.479       .  S
Fe2587     O2603   2.040       .  S
Fe2587     O2593   2.039   1_554  S
Fe2587     O2600   2.040       .  S
Fe2587     O2592   2.038       .  S
Fe2587     O2598   1.968   1_554  S
Fe2588     O3221   2.067   1_554  S
Fe2588     O2595   2.084       .  S
Fe2588     O2599   2.080       .  S
Fe2588     O3234   2.067   1_554  S
Fe2588     O2598   1.977   1_554  S
Fe2589     O2607   2.063       .  S
Fe2589     O2594   2.062       .  S
Fe2589     O2601   2.073       .  S
Fe2589     O2590   2.079       .  S
Fe2589     O3228   1.988       .  S
O2590      C2597   1.269       .  A
O2591     Fe3218   2.068       .  S
O2591      C2605   1.271       .  A
O2592      C3227   1.264   1_554  A
O2593      C3226   1.265       .  A
O2594      C2606   1.268       .  A
O2595      C2608   1.271       .  A
C2596      O3223   1.265       .  A
C2596      O2601   1.268       .  A
C2596      C2896   1.471       .  S
C2597      O3222   1.263       .  A
C2597      C2880   1.471       .  S
O2598     Fe3219   1.988       .  S
O2599      C2602   1.270       .  A
O2600      C2602   1.263       .  A
C2602      C3072   1.473       .  S
O2603      C2608   1.263       .  A
O2604     Fe3218   2.066       .  S
O2604      C2606   1.272       .  A
C2605      O2607   1.268       .  A
C2605      C2864   1.493       .  S
C2606      C2848   1.494       .  S
C2608      C2979   1.480       .  S
Fe2609     O2625   2.044       .  S
Fe2609     O2615   2.045       .  S
Fe2609     O2622   2.047       .  S
Fe2609     O2614   2.048       .  S
Fe2609     O2620   1.965       .  S
Fe2610     O3243   2.062   1_554  S
Fe2610     O2617   2.078       .  S
Fe2610     O2621   2.075       .  S
Fe2610     O3256   2.067   1_554  S
Fe2610     O2620   1.979       .  S
Fe2611     O2629   2.056       .  S
Fe2611     O2616   2.060       .  S
Fe2611     O2623   2.073       .  S
Fe2611     O2612   2.070       .  S
Fe2611     O3250   1.989       .  S
O2612      C2619   1.268       .  A
O2613     Fe3240   2.060       .  S
O2613      C2627   1.270       .  A
O2614      C3249   1.269   1_554  A
O2615      C3248   1.264   1_554  A
O2616      C2628   1.269       .  A
O2617      C2630   1.270       .  A
C2618      O3245   1.264       .  A
C2618      O2623   1.267       .  A
C2618      C2832   1.471       .  S
C2619      O3244   1.269       .  A
C2619      C2899   1.475       .  S
O2620     Fe3241   1.988   1_554  S
O2621      C2624   1.269       .  A
O2622      C2624   1.264       .  A
C2624      C2995   1.476       .  S
O2625      C2630   1.264       .  A
O2626     Fe3240   2.066       .  S
O2626      C2628   1.268       .  A
C2627      O2629   1.267       .  A
C2627      C2803   1.480       .  S
C2628      C2819   1.491       .  S
C2630      C2928   1.477       .  S
Fe2631     O2647   2.039       .  S
Fe2631     O2637   2.058   1_554  S
Fe2631     O2644   2.052       .  S
Fe2631     O2636   2.039       .  S
Fe2631     O2642   1.957       .  S
Fe2632     O3265   2.056   1_554  S
Fe2632     O2639   2.076       .  S
Fe2632     O2643   2.062       .  S
Fe2632     O3278   2.065   1_554  S
Fe2632     O2642   1.968       .  S
Fe2633     O2651   2.063       .  S
Fe2633     O2638   2.050       .  S
Fe2633     O2645   2.060       .  S
Fe2633     O2634   2.071       .  S
Fe2633     O3272   1.980       .  S
O2634      C2641   1.269       .  A
O2635     Fe3262   2.056       .  S
O2635      C2649   1.268       .  A
O2636      C3271   1.264   1_554  A
O2637      C3270   1.268       .  A
O2638      C2650   1.265       .  A
O2639      C2652   1.270       .  A
C2640      O3267   1.267       .  A
C2640      O2645   1.265       .  A
C2640      C2883   1.469       .  S
C2641      O3266   1.265       .  A
C2641      C2835   1.470       .  S
O2642     Fe3263   1.976   1_554  S
O2643      C2646   1.267       .  A
O2644      C2646   1.264       .  A
C2646      C2912   1.474       .  S
O2647      C2652   1.266       .  A
O2648     Fe3262   2.061       .  S
O2648      C2650   1.270       .  A
C2649      O2651   1.268       .  A
C2649      C2768   1.482       .  S
C2650      C2784   1.487       .  S
C2652      C3056   1.466       .  S
Fe2653     O2669   2.041       .  S
Fe2653     O2659   2.038       .  S
Fe2653     O2666   2.036       .  S
Fe2653     O2658   2.044       .  S
Fe2653     O2664   1.966       .  S
Fe2654     O2657   2.069       .  S
Fe2654     O2661   2.072       .  S
Fe2654     O2665   2.078       .  S
Fe2654     O2670   2.057       .  S
Fe2654     O2664   1.980       .  S
Fe2655     O2673   2.062       .  S
Fe2655     O2660   2.062       .  S
Fe2655     O2667   2.083       .  S
Fe2655     O2656   2.080       .  S
Fe2655     O2664   1.988       .  S
O2656      C2663   1.269       .  A
O2657      C2671   1.272       .  A
O2658      C2663   1.266       .  A
O2659      C2662   1.264       .  A
O2660      C2672   1.268       .  A
O2661      C2674   1.269       .  A
C2662      O2667   1.270       .  A
C2662      C2752   1.477       .  S
C2663      C3996   1.478       .  S
O2665      C2668   1.269       .  A
O2666      C2668   1.262       .  A
C2668      C2816   1.468       .  S
O2669      C2674   1.263       .  A
O2670      C2672   1.268       .  A
C2671      O2673   1.268       .  A
C2671      C3088   1.493       .  S
C2672      C3027   1.480       .  S
C2674      C2771   1.475       .  S
Fe2675     O2691   2.048       .  S
Fe2675     O2681   2.041       .  S
Fe2675     O2688   2.037       .  S
Fe2675     O2680   2.047       .  S
Fe2675     O2686   1.966       .  S
Fe2676     O2679   2.059       .  S
Fe2676     O2683   2.074       .  S
Fe2676     O2687   2.073       .  S
Fe2676     O2692   2.060       .  S
Fe2676     O2686   1.978       .  S
Fe2677     O2695   2.052       .  S
Fe2677     O2682   2.061       .  S
Fe2677     O2689   2.071       .  S
Fe2677     O2678   2.063       .  S
Fe2677     O2686   1.988       .  S
O2678      C2685   1.266       .  A
O2679      C2693   1.270       .  A
O2680      C2685   1.266       .  A
O2681      C2684   1.265       .  A
O2682      C2694   1.269       .  A
O2683      C2696   1.268       .  A
C2684      O2689   1.268       .  A
C2684      C3983   1.469       .  S
O2687      C2690   1.269       .  A
O2688      C2690   1.263       .  A
C2690      C2787   1.469       .  S
O2691      C2696   1.264       .  A
O2692      C2694   1.267       .  A
C2693      O2695   1.266       .  A
C2693      C3011   1.486       .  S
C2694      C2947   1.491       .  S
C2696      C2867   1.475       .  S
Fe2697     O2713   2.039       .  S
Fe2697     O2703   2.052       .  S
Fe2697     O2710   2.051       .  S
Fe2697     O2702   2.039       .  S
Fe2697     O2708   1.966       .  S
Fe2698     O2701   2.069       .  S
Fe2698     O2705   2.081       .  S
Fe2698     O2709   2.076       .  S
Fe2698     O2714   2.071       .  S
Fe2698     O2708   1.982       .  S
Fe2699     O2717   2.060       .  S
Fe2699     O2704   2.060       .  S
Fe2699     O2711   2.071       .  S
Fe2699     O2700   2.074       .  S
Fe2699     O2708   1.986       .  S
O2700      C2707   1.268       .  A
O2701      C2715   1.270       .  A
O2702      C2707   1.264       .  A
O2703      C2706   1.267       .  A
O2704      C2716   1.267       .  A
O2705      C2718   1.270       .  A
C2706      O2711   1.268       .  A
C2707      C2720   1.470       .  S
O2709      C2712   1.270       .  A
O2710      C2712   1.265       .  A
C2712      C2851   1.480       .  S
O2713      C2718   1.264       .  A
O2714      C2716   1.272       .  A
C2715      O2717   1.267       .  A
C2715      C2963   1.490       .  S
C2716      C3104   1.498       .  S
C2718      C2800   1.473       .  S
C2719      C2720   1.402       .  A
C2719      C2724   1.399       .  A
C2719      H2726   1.085       .  S
C2720      C2721   1.412       .  A
C2721      C2722   1.404       .  A
C2721      C2728   1.507       .  S
C2722      C2723   1.403       .  A
C2722      H3987   1.084       .  S
C2723      C3944   1.469   1_545  S
C2723      C2724   1.412       .  A
C2724      C2725   1.510       .  S
C2725      H2729   1.111       .  S
C2725      H2730   1.110       .  S
C2725      H2731   1.109       .  S
H2727      C3982   1.084       .  S
C2728      H2732   1.110       .  S
C2728      H2733   1.111       .  S
C2728      H2734   1.111       .  S
C2735      C2736   1.404       .  A
C2735      C2740   1.397       .  A
C2735      H2742   1.085       .  S
C2736      C3923   1.479   1_545  S
C2736      C2737   1.413       .  A
C2737      C2738   1.409       .  A
C2737      C2744   1.504       .  S
C2738      C2739   1.405       .  A
C2738      H2743   1.084       .  S
C2739      C2740   1.412       .  A
C2740      C2741   1.509       .  S
C2741      H2745   1.111       .  S
C2741      H2746   1.110       .  S
C2741      H2747   1.108       .  S
C2744      H4008   1.110       .  S
C2744      H4009   1.105   1_545  S
C2744      H2750   1.111       .  S
H2748      C4004   1.110       .  S
H2749      C4004   1.104       .  S
C2751      C2752   1.404       .  A
C2751      C2756   1.399       .  A
C2751      H2758   1.084       .  S
C2752      C2753   1.413       .  A
C2753      C2754   1.405       .  A
C2753      C2760   1.502       .  S
C2754      C2755   1.403       .  A
C2754      H2759   1.084       .  S
C2755      C2756   1.412       .  A
C2756      C2757   1.510       .  S
C2757      H2761   1.111       .  S
C2757      H2763   1.111       .  S
C2760      H2764   1.105       .  S
C2760      H2765   1.110       .  S
C2760      H2766   1.111       .  S
C2767      C2768   1.405       .  A
C2767      C2772   1.400       .  A
C2767      H2774   1.084       .  S
C2768      C2769   1.418       .  A
C2769      C2770   1.404       .  A
C2769      C2776   1.508       .  S
C2770      C2771   1.402       .  A
C2770      H2775   1.085       .  S
C2771      C2772   1.414       .  A
C2772      C2773   1.510       .  S
C2773      H2777   1.111       .  S
C2773      H2778   1.111       .  S
C2773      H2779   1.108       .  S
C2776      H2780   1.111       .  S
C2776      H2781   1.109       .  S
C2776      H2782   1.111       .  S
C2783      C2788   1.396       .  A
C2783      H2790   1.084       .  S
C2784      C2785   1.423       .  A
C2785      C2786   1.405   1_655  A
C2785      C2792   1.509       .  S
C2786      H2791   1.085       .  S
C2787      C2788   1.410       .  A
C2788      C2789   1.508       .  S
C2789      H2793   1.111       .  S
C2789      H2794   1.108       .  S
C2789      H2795   1.108       .  S
C2792      H2796   1.109       .  S
C2792      H2797   1.111       .  S
C2792      H2798   1.111       .  S
C2799      C2804   1.406   1_455  A
C2799      H2806   1.084       .  S
C2800      C2801   1.413       .  A
C2801      C2802   1.397       .  A
C2801      C2808   1.506       .  S
C2802      H2807   1.084       .  S
C2803      C2804   1.418       .  A
C2804      C2805   1.508       .  S
C2805      H2809   1.111       .  S
C2805      H2810   1.111       .  S
C2805      H2811   1.109       .  S
C2808      H2812   1.107       .  S
C2808      H2813   1.108       .  S
C2808      H2814   1.111       .  S
C2815      C2816   1.400       .  A
C2815      C4080   1.403       .  A
C2815      H2822   1.085       .  S
C2816      C2817   1.407       .  A
C2817      C4078   1.402       .  A
C2817      C2824   1.509       .  S
C2818      C4077   1.404       .  A
C2818      C2819   1.411       .  A
C2818      H2823   1.083       .  S
C2819      C2820   1.421       .  A
C2820      C4075   1.403   1_545  A
C2820      C2821   1.509       .  S
C2821      H2825   1.111       .  S
C2821      H2826   1.110       .  S
C2821      H2827   1.111       .  S
C2824      H2828   1.110       .  S
C2824      H2829   1.111       .  S
C2824      H2830   1.111       .  S
C2831      C2832   1.402       .  A
C2831      C2836   1.400       .  A
C2831      H2838   1.084       .  S
C2832      C2833   1.412       .  A
C2833      C2834   1.401       .  A
C2833      C2840   1.501       .  S
C2834      C2835   1.401       .  A
C2834      H2839   1.084       .  S
C2835      C2836   1.413       .  A
C2836      C2837   1.509       .  S
C2837      H2841   1.111       .  S
C2837      H3472   1.108       .  S
C2837      H2843   1.110       .  S
C2840      H3474   1.107       .  S
C2840      H2845   1.110       .  S
C2840      H2846   1.111       .  S
H2842      C3467   1.108       .  S
H2844      C3470   1.106       .  S
C2847      C2848   1.407       .  A
C2847      C2852   1.400       .  A
C2847      H2854   1.084       .  S
C2848      C2849   1.423       .  A
C2849      C2850   1.407       .  A
C2849      C2856   1.508       .  S
C2850      C2851   1.402       .  A
C2850      H2855   1.085       .  S
C2851      C2852   1.413       .  A
C2852      C2853   1.507       .  S
C2853      H2857   1.111       .  S
C2853      H2858   1.108       .  S
C2853      H2859   1.107       .  S
C2856      H2860   1.109       .  S
C2856      H2861   1.110       .  S
C2856      H2862   1.111       .  S
C2863      C2864   1.407       .  A
C2863      C4128   1.402   1_545  A
C2863      H4130   1.084       .  S
C2864      C2865   1.423       .  A
C2865      C2866   1.406   1_545  A
C2865      C2872   1.509       .  S
C2866      C4127   1.400       .  A
C2866      H2871   1.085       .  S
C2867      C4126   1.399       .  A
C2867      C2868   1.412       .  A
C2868      C4123   1.402       .  A
C2868      C2869   1.506       .  S
C2869      H2873   1.111       .  S
C2869      H2874   1.109       .  S
C2869      H2875   1.109       .  S
H2870      C4123   1.084       .  S
C2872      H2876   1.110       .  S
C2872      H2877   1.109       .  S
C2872      H2878   1.111       .  S
C2879      C2880   1.402       .  A
C2879      C2884   1.404       .  A
C2879      H2886   1.084       .  S
C2880      C2881   1.414       .  A
C2881      C2882   1.397       .  A
C2881      C2888   1.509       .  S
C2882      C2883   1.401       .  A
C2882      H2887   1.085       .  S
C2883      C2884   1.417       .  A
C2884      C2885   1.508       .  S
C2885      H2889   1.110       .  S
C2885      H2890   1.111       .  S
C2885      H2891   1.105       .  S
C2888      H3522   1.111       .  S
C2888      H2893   1.109       .  S
C2888      H2894   1.110       .  S
H2892      C3518   1.111       .  S
C2895      C2896   1.403       .  A
C2895      C2900   1.407       .  A
C2895      H2902   1.084       .  S
C2896      C3527   1.413       .  A
C2897      C3526   1.414       .  A
C2897      C2898   1.396       .  A
C2897      C2904   1.510   1_556  S
C2898      C3529   1.402       .  A
C2898      H2903   1.085   1_556  S
C2899      C3528   1.401       .  A
C2899      C2900   1.413       .  A
C2900      C2901   1.505       .  S
C2901      H2905   1.111       .  S
C2901      H2906   1.110       .  S
C2901      H2907   1.103       .  S
C2904      H2908   1.111       .  S
C2904      H2909   1.107       .  S
C2904      H2910   1.111       .  S
C2911      C2912   1.400       .  A
C2911      C2916   1.402       .  A
C2911      H2918   1.087       .  S
C2912      C2913   1.413       .  A
C2913      C2914   1.401       .  A
C2913      C2920   1.509       .  S
C2914      C2915   1.407       .  A
C2914      H2919   1.086       .  S
C2915      C2916   1.421       .  A
C2916      C2917   1.509   1_655  S
C2917      H2921   1.111       .  S
C2917      H2922   1.109       .  S
C2917      H2923   1.110       .  S
C2920      H2924   1.108       .  S
C2920      H2925   1.110       .  S
C2920      H2926   1.111       .  S
C2927      C2928   1.403       .  A
C2927      C2932   1.407       .  A
C2927      H2934   1.084       .  S
C2928      C2929   1.413       .  A
C2929      C2930   1.398       .  A
C2929      C2936   1.508       .  S
C2930      C2931   1.407       .  A
C2930      H2935   1.084       .  S
C2931      C2932   1.421       .  A
C2933      H2937   1.111       .  S
C2933      H2938   1.110       .  S
C2933      H2939   1.109       .  S
C2936      H2940   1.108       .  S
C2936      H2941   1.108       .  S
C2936      H2942   1.111       .  S
C2943      C2944   1.398       .  A
C2943      C2948   1.400       .  A
C2943      H2950   1.085       .  S
C2944      C2945   1.408       .  A
C2945      C2946   1.404       .  A
C2946      C2947   1.411       .  A
C2946      H2951   1.084       .  S
C2947      C2948   1.422       .  A
C2948      C2949   1.509       .  S
C2949      H2953   1.111       .  S
C2949      H2954   1.110       .  S
C2949      H2955   1.110       .  S
C2952      H2956   1.110   1_455  S
C2952      H2957   1.111       .  S
C2952      H2958   1.111       .  S
C2959      C2960   1.401       .  A
C2959      C2964   1.405       .  A
C2959      H2966   1.084       .  S
C2960      C2961   1.415       .  A
C2961      C2962   1.402       .  A
C2962      C2963   1.406       .  A
C2962      H2967   1.084       .  S
C2963      C2964   1.421       .  A
C2964      C2965   1.509       .  S
C2965      H2969   1.109       .  S
C2965      H2970   1.111       .  S
C2965      H2971   1.111       .  S
C2968      H2972   1.111       .  S
C2968      H2974   1.111       .  S
C2975      C2976   1.408       .  A
C2975      C2980   1.401       .  A
C2975      H2982   1.084       .  S
C2976      C2977   1.423       .  A
C2977      C2978   1.408       .  A
C2977      C2984   1.508   1_545  S
C2978      C2979   1.402       .  A
C2978      H2983   1.085       .  S
C2979      C2980   1.413       .  A
C2980      C2981   1.510       .  S
C2981      H2985   1.111       .  S
C2981      H2986   1.111       .  S
C2981      H2987   1.108       .  S
C2984      H4248   1.111       .  S
C2984      H2989   1.109       .  S
C2984      H2990   1.111       .  S
H2988      C4244   1.111       .  S
C2991      C2992   1.404       .  A
C2991      C2996   1.400       .  A
C2991      H2998   1.084       .  S
C2992      C2993   1.419       .  A
C2993      C2994   1.405       .  A
C2993      C3000   1.508   1_545  S
C2994      C2995   1.402       .  A
C2994      H2999   1.084       .  S
C2995      C2996   1.414       .  A
C2996      C2997   1.507       .  S
C2997      H3001   1.111       .  S
C2997      H3002   1.109       .  S
C2997      H3003   1.109       .  S
C3000      H3004   1.109       .  S
C3000      H4265   1.111       .  S
C3000      H3006   1.111       .  S
H3005      C4260   1.110       .  S
C3007      C3008   1.400       .  A
C3007      C3012   1.405       .  A
C3007      H3014   1.085       .  S
C3008      C3009   1.412       .  A
C3009      C3010   1.396       .  A
C3009      C3016   1.508       .  S
C3010      C3011   1.405       .  A
C3010      H3015   1.084       .  S
C3011      C3012   1.423       .  A
C3012      C3013   1.509       .  S
C3013      H3017   1.111       .  S
C3013      H3018   1.111       .  S
C3013      H3019   1.109       .  S
C3016      H4280   1.110       .  S
C3016      H3021   1.109       .  S
C3016      H3022   1.111       .  S
H3020      C4276   1.110       .  S
C3023      C3024   1.403       .  A
C3023      C3028   1.406       .  A
C3023      H3030   1.084       .  S
C3024      C3025   1.416       .  A
C3025      C3026   1.398       .  A
C3025      C3032   1.509       .  S
C3026      C3027   1.403       .  A
C3026      H3031   1.085       .  S
C3027      C3028   1.417       .  A
C3028      C3029   1.508       .  S
C3029      H3033   1.111       .  S
C3029      H3034   1.109       .  S
C3029      H3035   1.111       .  S
C3032      H3036   1.108       .  S
C3032      H4297   1.107       .  S
C3032      H4298   1.111       .  S
H3037      C4292   1.107       .  S
H3038      C4292   1.111       .  S
C3039      C3040   1.399       .  A
C3039      C3044   1.402       .  A
C3039      H3046   1.083       .  S
C3040      C3041   1.410       .  A
C3041      C3042   1.399       .  A
C3041      C3048   1.509       .  S
C3042      C3043   1.404       .  A
C3042      H3047   1.085       .  S
C3043      C3044   1.416       .  A
C3044      C3045   1.508       .  S
C3045      H3049   1.111       .  S
C3045      H3050   1.111       .  S
C3045      H3051   1.110       .  S
C3048      H3052   1.109       .  S
C3048      H3053   1.110       .  S
C3048      H3054   1.111       .  S
C3055      C3056   1.398       .  A
C3055      C3060   1.401       .  A
C3055      H3062   1.085       .  S
C3056      C3057   1.407       .  A
C3057      C3058   1.402       .  A
C3057      C3064   1.508       .  S
C3058      C3059   1.409       .  A
C3058      H3063   1.084       .  S
C3059      C3060   1.422       .  A
C3060      C3061   1.509       .  S
C3061      H3065   1.111       .  S
C3061      H3066   1.110       .  S
C3061      H3067   1.110       .  S
C3064      H3068   1.111       .  S
C3064      H3069   1.110       .  S
C3064      H3070   1.111       .  S
C3071      C3072   1.399       .  A
C3071      C3076   1.403       .  A
C3071      H3078   1.085       .  S
C3072      C3073   1.408       .  A
C3073      C3074   1.405       .  A
C3073      C3080   1.508       .  S
C3074      C3075   1.412       .  A
C3074      H3079   1.083       .  S
C3075      C3076   1.425       .  A
C3076      C3077   1.509       .  S
C3077      H3081   1.111       .  S
C3077      H3082   1.110       .  S
C3077      H3083   1.110       .  S
C3080      H3084   1.110       .  S
C3080      H3085   1.110       .  S
C3080      H3086   1.111       .  S
C3087      C3088   1.409       .  A
C3087      C3092   1.402       .  A
C3087      H3094   1.084       .  S
C3088      C3089   1.424       .  A
C3089      C3090   1.406       .  A
C3089      C3096   1.509       .  S
C3090      C3091   1.399       .  A
C3090      H3095   1.085       .  S
C3091      C3092   1.411       .  A
C3092      C3093   1.508       .  S
C3093      H3097   1.111       .  S
C3093      H3098   1.110       .  S
C3093      H3099   1.109       .  S
C3096      H3100   1.110       .  S
C3096      H3101   1.110       .  S
C3096      H3102   1.111       .  S
C3103      C3104   1.410       .  A
C3103      C3108   1.403       .  A
C3103      H3110   1.084       .  S
C3104      C3105   1.426       .  A
C3105      C3106   1.406       .  A
C3105      C3112   1.509       .  S
C3106      C3107   1.398       .  A
C3106      H3111   1.085       .  S
C3107      C3108   1.408       .  A
C3108      C3109   1.507       .  S
C3109      H3113   1.111       .  S
C3109      H3114   1.109       .  S
C3109      H3115   1.111       .  S
C3112      H3116   1.110       .  S
C3112      H3117   1.111       .  S
C3112      H3118   1.111       .  S
C3119      C3120   1.402       .  A
C3119      C3124   1.408       .  A
C3119      H3126   1.084       .  S
C3120      C3121   1.414       .  A
C3121      C3122   1.401       .  A
C3121      C3128   1.508       .  S
C3122      C3123   1.401       .  A
C3122      H3127   1.085       .  S
C3123      C3124   1.415       .  A
C3124      C3125   1.505       .  S
C3125      H3129   1.111       .  S
C3125      H3130   1.108       .  S
C3125      H3131   1.110       .  S
C3128      H3132   1.107       .  S
C3128      H3133   1.111       .  S
C3128      H3134   1.111       .  S
C3135      C3136   1.402       .  A
C3135      C3140   1.403       .  A
C3135      H3142   1.082       .  S
C3136      C3137   1.412       .  A
C3137      C3138   1.401       .  A
C3137      C3144   1.509       .  S
C3138      C3139   1.403       .  A
C3138      H3143   1.084       .  S
C3139      C3140   1.413       .  A
C3140      C3141   1.507       .  S
C3141      H3145   1.111       .  S
C3141      H3146   1.110       .  S
C3141      H3147   1.110       .  S
C3144      H3148   1.109       .  S
C3144      H3149   1.110       .  S
C3144      H3150   1.111       .  S
Fe3151     O3167   2.041       .  S
Fe3151     O3157   2.058       .  S
Fe3151     O3164   2.058       .  S
Fe3151     O3156   2.046       .  S
Fe3151     O3162   1.966       .  S
Fe3152     O3155   2.057       .  S
Fe3152     O3159   2.086       .  S
Fe3152     O3163   2.072       .  S
Fe3152     O3168   2.071       .  S
Fe3152     O3162   1.977       .  S
Fe3153     O3171   2.066       .  S
Fe3153     O3158   2.066       .  S
Fe3153     O3165   2.072       .  S
Fe3153     O3154   2.075       .  S
Fe3153     O3162   1.984       .  S
O3154      C3161   1.269       .  A
O3155      C3169   1.267       .  A
O3156      C3161   1.266       .  A
O3157      C3160   1.268       .  A
O3158      C3170   1.271       .  A
O3159      C3172   1.271       .  A
C3160      O3165   1.269       .  A
C3160      C3753   1.477       .  S
C3161      C3766   1.472       .  S
O3163      C3166   1.268       .  A
O3164      C3166   1.266       .  A
C3166      C3737   1.474       .  S
O3167      C3172   1.263       .  A
O3168      C3170   1.269       .  A
C3169      O3171   1.271       .  A
C3169      C3689   1.488       .  S
C3170      C3705   1.500       .  S
C3172      C3721   1.477       .  S
Fe3173     O3189   2.039       .  S
Fe3173     O3179   2.043       .  S
Fe3173     O3186   2.036       .  S
Fe3173     O3178   2.050       .  S
Fe3173     O3184   1.960       .  S
Fe3174     O3177   2.074   1_565  S
Fe3174     O4441   2.065       .  S
Fe3174     O3185   2.086       .  S
Fe3174     O3190   2.054   1_565  S
Fe3174     O4444   1.970       .  S
Fe3175     O3193   2.068       .  S
Fe3175     O3180   2.060       .  S
Fe3175     O3187   2.072       .  S
Fe3175     O3176   2.079       .  S
Fe3175     O3184   1.979       .  S
O3176      C3183   1.270       .  A
O3177      C3191   1.274       .  A
O3178      C3183   1.266       .  A
O3179      C3182   1.265       .  A
O3180      C4452   1.266       .  A
O3181     Fe4434   2.070       .  S
O3181      C3194   1.267       .  A
C3182      O3187   1.268       .  A
C3182      C3673   1.473       .  S
C3183      C3750   1.473       .  S
O3184     Fe4434   1.974       .  S
O3185      C4448   1.272       .  A
O3186      C3188   1.263       .  A
C3188      O4445   1.272       .  A
C3188      C3654   1.476       .  S
O3189      C3194   1.262       .  A
O3190      C3192   1.268       .  A
C3191      O4453   1.270   1_545  A
C3191      C3606   1.495       .  S
C3192      O4440   1.267   1_545  A
C3192      C3622   1.480       .  S
O3193      C4451   1.271       .  A
C3194      C3638   1.470       .  S
Fe3195     O3211   2.047       .  S
Fe3195     O3201   2.042       .  S
Fe3195     O3208   2.037       .  S
Fe3195     O3200   2.049       .  S
Fe3195     O3206   1.965       .  S
Fe3196     O3199   2.067   1_455  S
Fe3196     O3212   2.055   1_455  S
Fe3197     O3215   2.062       .  S
Fe3197     O3202   2.058       .  S
Fe3197     O3209   2.076       .  S
Fe3197     O3198   2.065       .  S
Fe3197     O3206   1.987       .  S
O3198      C3205   1.267       .  A
O3199      C3213   1.272   1_655  A
O3200      C3205   1.267       .  A
O3201      C3204   1.264       .  A
O3203      C3216   1.270       .  A
C3204      O3209   1.268       .  A
C3204      C3769   1.471       .  S
C3205      C3670   1.465       .  S
O3207      C3210   1.267       .  A
O3208      C3210   1.263       .  A
C3210      C3574   1.467       .  S
O3211      C3216   1.265       .  A
O3212      C3214   1.268   1_655  A
C3213      C3561   1.492   1_455  S
C3214      C3545   1.483   1_455  S
C3216      C3590   1.480       .  S
Fe3217     O3233   2.037       .  S
Fe3217     O3223   2.042       .  S
Fe3217     O3230   2.046       .  S
Fe3217     O3222   2.034       .  S
Fe3217     O3228   1.967       .  S
Fe3218     O3225   2.085       .  S
Fe3218     O3229   2.081       .  S
Fe3218     O3228   1.975       .  S
Fe3219     O3237   2.062       .  S
Fe3219     O3224   2.063       .  S
Fe3219     O3231   2.074       .  S
Fe3219     O3220   2.078       .  S
O3220      C3227   1.268       .  A
O3221      C3235   1.271       .  A
O3224      C3236   1.268       .  A
O3225      C3238   1.271       .  A
C3226      O3231   1.268       .  A
C3226      C3526   1.470       .  S
C3227      C3510   1.472       .  S
O3229      C3232   1.270       .  A
O3230      C3232   1.264       .  A
C3232      C3702   1.476       .  S
O3233      C3238   1.262       .  A
O3234      C3236   1.272       .  A
C3235      O3237   1.267       .  A
C3235      C3494   1.493       .  S
C3236      C3478   1.494       .  S
C3238      C3609   1.479       .  S
Fe3239     O3255   2.048       .  S
Fe3239     O3245   2.042       .  S
Fe3239     O3252   2.045       .  S
Fe3239     O3244   2.050       .  S
Fe3239     O3250   1.966       .  S
Fe3240     O3247   2.076       .  S
Fe3240     O3251   2.072       .  S
Fe3240     O3250   1.978       .  S
Fe3241     O3259   2.054       .  S
Fe3241     O3246   2.056       .  S
Fe3241     O3253   2.070       .  S
Fe3241     O3242   2.069       .  S
O3242      C3249   1.267       .  A
O3243      C3257   1.270       .  A
O3246      C3258   1.268       .  A
O3247      C3260   1.270       .  A
C3248      O3253   1.266       .  A
C3248      C3462   1.470       .  S
C3249      C3529   1.476       .  S
O3251      C3254   1.268       .  A
O3252      C3254   1.263       .  A
C3254      C3625   1.474       .  S
O3255      C3260   1.265       .  A
O3256      C3258   1.268       .  A
C3257      O3259   1.267       .  A
C3257      C3433   1.483       .  S
C3258      C3449   1.493       .  S
C3260      C3558   1.477       .  S
Fe3261     O3277   2.043       .  S
Fe3261     O3267   2.055       .  S
Fe3261     O3274   2.047       .  S
Fe3261     O3266   2.042       .  S
Fe3261     O3272   1.962       .  S
Fe3262     O3269   2.072       .  S
Fe3262     O3273   2.062       .  S
Fe3262     O3272   1.973       .  S
Fe3263     O3281   2.066       .  S
Fe3263     O3268   2.049       .  S
Fe3263     O3275   2.060       .  S
Fe3263     O3264   2.075       .  S
O3264      C3271   1.269       .  A
O3265      C3279   1.268       .  A
O3268      C3280   1.264       .  A
O3269      C3282   1.269       .  A
C3270      O3275   1.266       .  A
C3270      C3513   1.468       .  S
C3271      C3465   1.471       .  S
O3273      C3276   1.266       .  A
O3274      C3276   1.263       .  A
C3276      C3542   1.472       .  S
O3277      C3282   1.266       .  A
O3278      C3280   1.271       .  A
C3279      O3281   1.269       .  A
C3279      C3398   1.482       .  S
C3280      C3414   1.488       .  S
C3282      C3686   1.467       .  S
Fe3283     O3299   2.041       .  S
Fe3283     O3289   2.038       .  S
Fe3283     O3296   2.036       .  S
Fe3283     O3288   2.044       .  S
Fe3283     O3294   1.967       .  S
Fe3284     O3287   2.071       .  S
Fe3284     O3291   2.075       .  S
Fe3284     O3295   2.080       .  S
Fe3284     O3300   2.060       .  S
Fe3284     O3294   1.979       .  S
Fe3285     O3303   2.063       .  S
Fe3285     O3290   2.058       .  S
Fe3285     O3297   2.077       .  S
Fe3285     O3286   2.081       .  S
Fe3285     O3294   1.988       .  S
O3286      C3293   1.269       .  A
O3287      C3301   1.272       .  A
O3288      C3293   1.266       .  A
O3289      C3292   1.264       .  A
O3290      C3302   1.267       .  A
O3291      C3304   1.269       .  A
C3292      O3297   1.268       .  A
C3292      C3382   1.474       .  S
C3293      C4626   1.478       .  S
O3295      C3298   1.270       .  A
O3296      C3298   1.262       .  A
C3298      C3446   1.470       .  S
O3299      C3304   1.263       .  A
O3300      C3302   1.269       .  A
C3301      O3303   1.268       .  A
C3301      C3718   1.494       .  S
C3302      C3657   1.481       .  S
C3304      C3401   1.475       .  S
Fe3305     O3321   2.051       .  S
Fe3305     O3311   2.042       .  S
Fe3305     O3318   2.036       .  S
Fe3305     O3310   2.050       .  S
Fe3305     O3316   1.966       .  S
Fe3306     O3309   2.059       .  S
Fe3306     O3313   2.071       .  S
Fe3306     O3317   2.072       .  S
Fe3306     O3322   2.058       .  S
Fe3306     O3316   1.978       .  S
Fe3307     O3325   2.054       .  S
Fe3307     O3312   2.060       .  S
Fe3307     O3319   2.071       .  S
Fe3307     O3308   2.065       .  S
Fe3307     O3316   1.987       .  S
O3308      C3315   1.267       .  A
O3309      C3323   1.270       .  A
O3310      C3315   1.266       .  A
O3311      C3314   1.265       .  A
O3312      C3324   1.269       .  A
O3313      C3326   1.268       .  A
C3314      O3319   1.268       .  A
C3314      C4613   1.469       .  S
O3317      C3320   1.268       .  A
O3318      C3320   1.263       .  A
C3320      C3417   1.469       .  S
O3321      C3326   1.264       .  A
O3322      C3324   1.266       .  A
C3323      O3325   1.266       .  A
C3323      C3641   1.487       .  S
C3324      C3577   1.491       .  S
C3326      C3497   1.473       .  S
Fe3327     O3343   2.032       .  S
Fe3327     O3333   2.056       .  S
Fe3327     O3340   2.055       .  S
Fe3327     O3332   2.037       .  S
Fe3327     O3338   1.964       .  S
Fe3328     O3331   2.064       .  S
Fe3328     O3335   2.087       .  S
Fe3328     O3339   2.071       .  S
Fe3328     O3344   2.078       .  S
Fe3328     O3338   1.980       .  S
Fe3329     O3347   2.065       .  S
Fe3329     O3334   2.059       .  S
Fe3329     O3341   2.068       .  S
Fe3329     O3330   2.079       .  S
Fe3329     O3338   1.983       .  S
O3330      C3337   1.269       .  A
O3331      C3345   1.269       .  A
O3332      C3337   1.264       .  A
O3333      C3336   1.268       .  A
O3334      C3346   1.267       .  A
O3335      C3348   1.272       .  A
C3336      O3341   1.267       .  A
C3337      C3350   1.471       .  S
O3339      C3342   1.268       .  A
O3340      C3342   1.265       .  A
C3342      C3481   1.478       .  S
O3343      C3348   1.262       .  A
O3344      C3346   1.274       .  A
C3345      O3347   1.268       .  A
C3345      C3593   1.487       .  S
C3346      C3734   1.500       .  S
C3348      C3430   1.475       .  S
C3349      C3350   1.403       .  A
C3349      C3354   1.400       .  A
C3349      H3356   1.085       .  S
C3350      C3351   1.413       .  A
C3351      C3352   1.404       .  A
C3351      C3358   1.507       .  S
C3352      C3353   1.403       .  A
C3352      H4617   1.084       .  S
C3353      C4574   1.469   1_545  S
C3353      C3354   1.412       .  A
C3354      C3355   1.509       .  S
C3355      H3359   1.111       .  S
C3355      H3360   1.110       .  S
C3355      H3361   1.109       .  S
H3357      C4612   1.084       .  S
C3358      H3362   1.110       .  S
C3358      H3363   1.111       .  S
C3358      H3364   1.111       .  S
C3365      C3366   1.403       .  A
C3365      C3370   1.398       .  A
C3365      H3372   1.085       .  S
C3366      C4553   1.478   1_545  S
C3366      C3367   1.412       .  A
C3367      C3368   1.408       .  A
C3367      C3374   1.503       .  S
C3368      C3369   1.406       .  A
C3368      H3373   1.084       .  S
C3369      C3370   1.413       .  A
C3370      C3371   1.510       .  S
C3371      H3375   1.111       .  S
C3371      H3376   1.110       .  S
C3371      H3377   1.108       .  S
C3374      H4638   1.110       .  S
C3374      H4639   1.105   1_545  S
C3374      H3380   1.111       .  S
H3378      C4634   1.110       .  S
H3379      C4634   1.103       .  S
C3381      C3382   1.404       .  A
C3381      C3386   1.398       .  A
C3381      H3388   1.084       .  S
C3382      C3383   1.412       .  A
C3383      C3384   1.404       .  A
C3383      C3390   1.502       .  S
C3384      C3385   1.402       .  A
C3384      H3389   1.084       .  S
C3385      C3386   1.412       .  A
C3386      C3387   1.510       .  S
C3387      H3391   1.111       .  S
C3387      H3393   1.110       .  S
C3390      H3394   1.105       .  S
C3390      H3395   1.110       .  S
C3390      H3396   1.111       .  S
C3397      C3398   1.404       .  A
C3397      C3402   1.401       .  A
C3397      H3404   1.084       .  S
C3398      C3399   1.418       .  A
C3399      C3400   1.404       .  A
C3399      C3406   1.508       .  S
C3400      C3401   1.402       .  A
C3400      H3405   1.084       .  S
C3401      C3402   1.415       .  A
C3402      C3403   1.510       .  S
C3403      H3407   1.111       .  S
C3403      H3408   1.110       .  S
C3403      H3409   1.108       .  S
C3406      H3410   1.111       .  S
C3406      H3411   1.109       .  S
C3406      H3412   1.111       .  S
C3413      C3418   1.396       .  A
C3413      H3420   1.084       .  S
C3414      C3415   1.424       .  A
C3415      C3416   1.405   1_655  A
C3415      C3422   1.509       .  S
C3416      H3421   1.085       .  S
C3417      C3418   1.410       .  A
C3418      C3419   1.508       .  S
C3419      H3423   1.111       .  S
C3419      H3424   1.108       .  S
C3419      H3425   1.108       .  S
C3422      H3426   1.109       .  S
C3422      H3427   1.111       .  S
C3422      H3428   1.111       .  S
C3429      C3434   1.405   1_455  A
C3429      H3436   1.084       .  S
C3430      C3431   1.415       .  A
C3431      C3432   1.397       .  A
C3431      C3438   1.508       .  S
C3432      H3437   1.084       .  S
C3433      C3434   1.420       .  A
C3434      C3435   1.508       .  S
C3435      H3439   1.111       .  S
C3435      H3440   1.111       .  S
C3435      H3441   1.109       .  S
C3438      H3442   1.107       .  S
C3438      H3443   1.108       .  S
C3438      H3444   1.111       .  S
C3445      C3446   1.400       .  A
C3445      C4710   1.403       .  A
C3445      H3452   1.085       .  S
C3446      C3447   1.408       .  A
C3447      C4708   1.403       .  A
C3447      C3454   1.508       .  S
C3448      C4707   1.404       .  A
C3448      C3449   1.412       .  A
C3448      H3453   1.083       .  S
C3449      C3450   1.422       .  A
C3450      C4705   1.403   1_545  A
C3450      C3451   1.509       .  S
C3451      H3455   1.111       .  S
C3451      H3456   1.110   1_556  S
C3451      H3457   1.110       .  S
C3454      H3458   1.110       .  S
C3454      H3459   1.111       .  S
C3454      H3460   1.111       .  S
C3461      C3462   1.402       .  A
C3461      C3466   1.400       .  A
C3461      H3468   1.084   1_556  S
C3462      C3463   1.412       .  A
C3463      C3464   1.401       .  A
C3463      C3470   1.501       .  S
C3464      C3465   1.402       .  A
C3464      H3469   1.084       .  S
C3465      C3466   1.414       .  A
C3466      C3467   1.510   1_556  S
C3467      H3471   1.111       .  S
C3467      H3473   1.110   1_554  S
C3470      H3475   1.110       .  S
C3470      H3476   1.111       .  S
C3477      C3478   1.408       .  A
C3477      C3482   1.401       .  A
C3477      H3484   1.084       .  S
C3478      C3479   1.423       .  A
C3479      C3480   1.406       .  A
C3479      C3486   1.508       .  S
C3480      C3481   1.401       .  A
C3480      H3485   1.085       .  S
C3481      C3482   1.412       .  A
C3482      C3483   1.507       .  S
C3483      H3487   1.111       .  S
C3483      H3488   1.108       .  S
C3483      H3489   1.109       .  S
C3486      H3490   1.109       .  S
C3486      H3491   1.111       .  S
C3486      H3492   1.111       .  S
C3493      C3494   1.407       .  A
C3493      C4758   1.401   1_545  A
C3493      H4760   1.084       .  S
C3494      C3495   1.424       .  A
C3495      C3496   1.406   1_545  A
C3495      C3502   1.509       .  S
C3496      C4757   1.400       .  A
C3496      H3501   1.085       .  S
C3497      C4756   1.398       .  A
C3497      C3498   1.410       .  A
C3498      C4753   1.402       .  A
C3498      C3499   1.506       .  S
C3499      H3503   1.111       .  S
C3499      H3504   1.109       .  S
C3499      H3505   1.109       .  S
H3500      C4753   1.084       .  S
C3502      H3506   1.110       .  S
C3502      H3507   1.109       .  S
C3502      H3508   1.111       .  S
C3509      C3510   1.402       .  A
C3509      C3514   1.404       .  A
C3509      H3516   1.084       .  S
C3510      C3511   1.414       .  A
C3511      C3512   1.397       .  A
C3511      C3518   1.509   1_556  S
C3512      C3513   1.401       .  A
C3512      H3517   1.085   1_556  S
C3513      C3514   1.416       .  A
C3514      C3515   1.508       .  S
C3515      H3519   1.110       .  S
C3515      H3520   1.111       .  S
C3515      H3521   1.106       .  S
C3518      H3523   1.109       .  S
C3518      H3524   1.110       .  S
C3525      C3526   1.402       .  A
C3525      C3530   1.406       .  A
C3525      H3532   1.084       .  S
C3527      C3528   1.396       .  A
C3527      C3534   1.510       .  S
C3528      H3533   1.084       .  S
C3529      C3530   1.415       .  A
C3530      C3531   1.505       .  S
C3531      H3535   1.111       .  S
C3531      H3536   1.110       .  S
C3531      H3537   1.103       .  S
C3534      H3538   1.111       .  S
C3534      H3539   1.107       .  S
C3534      H3540   1.111       .  S
C3541      C3542   1.401       .  A
C3541      C3546   1.402       .  A
C3541      H3548   1.087       .  S
C3542      C3543   1.413       .  A
C3543      C3544   1.399       .  A
C3543      C3550   1.509       .  S
C3544      C3545   1.406       .  A
C3544      H3549   1.086       .  S
C3545      C3546   1.420       .  A
C3546      C3547   1.509   1_655  S
C3547      H3551   1.111       .  S
C3547      H3552   1.109       .  S
C3547      H3553   1.110       .  S
C3550      H3554   1.108       .  S
C3550      H3555   1.110       .  S
C3550      H3556   1.111       .  S
C3557      C3558   1.402       .  A
C3557      C3562   1.407       .  A
C3557      H3564   1.085       .  S
C3558      C3559   1.412       .  A
C3559      C3560   1.399       .  A
C3559      C3566   1.508       .  S
C3560      C3561   1.408       .  A
C3560      H3565   1.084       .  S
C3561      C3562   1.423       .  A
C3563      H3567   1.111       .  S
C3563      H3568   1.110       .  S
C3563      H3569   1.109       .  S
C3566      H3570   1.108       .  S
C3566      H3571   1.109       .  S
C3566      H3572   1.111       .  S
C3573      C3574   1.398       .  A
C3573      C3578   1.401       .  A
C3573      H3580   1.085       .  S
C3574      C3575   1.408       .  A
C3575      C3576   1.402       .  A
C3576      C3577   1.411       .  A
C3576      H3581   1.083       .  S
C3577      C3578   1.423       .  A
C3578      C3579   1.509       .  S
C3579      H3583   1.111       .  S
C3579      H3584   1.110       .  S
C3579      H3585   1.110       .  S
C3582      H3586   1.110   1_455  S
C3582      H3587   1.111       .  S
C3582      H3588   1.111       .  S
C3589      C3590   1.402       .  A
C3589      C3594   1.406       .  A
C3589      H3596   1.084       .  S
C3590      C3591   1.416       .  A
C3591      C3592   1.402       .  A
C3592      C3593   1.405       .  A
C3592      H3597   1.084       .  S
C3593      C3594   1.419       .  A
C3594      C3595   1.508       .  S
C3595      H3599   1.108       .  S
C3595      H3600   1.111       .  S
C3595      H3601   1.111       .  S
C3598      H3602   1.111       .  S
C3598      H3604   1.111       .  S
C3605      C3606   1.408       .  A
C3605      C3610   1.401       .  A
C3605      H3612   1.084       .  S
C3606      C3607   1.423       .  A
C3607      C3608   1.408       .  A
C3607      C3614   1.508   1_545  S
C3608      C3609   1.402       .  A
C3608      H3613   1.085       .  S
C3609      C3610   1.413       .  A
C3610      C3611   1.510       .  S
C3611      H3615   1.111       .  S
C3611      H3616   1.111       .  S
C3611      H3617   1.109       .  S
C3614      H4878   1.111       .  S
C3614      H3619   1.109       .  S
C3614      H3620   1.111       .  S
H3618      C4874   1.111       .  S
C3621      C3622   1.404       .  A
C3621      C3626   1.399       .  A
C3621      H3628   1.085       .  S
C3622      C3623   1.418       .  A
C3623      C3624   1.404       .  A
C3623      C3630   1.508   1_545  S
C3624      C3625   1.402       .  A
C3624      H3629   1.085       .  S
C3625      C3626   1.413       .  A
C3626      C3627   1.507       .  S
C3627      H3631   1.111       .  S
C3627      H3632   1.109       .  S
C3627      H3633   1.108       .  S
C3630      H3634   1.109       .  S
C3630      H4895   1.110       .  S
C3630      H3636   1.111       .  S
H3635      C4890   1.111       .  S
C3637      C3638   1.400       .  A
C3637      C3642   1.405       .  A
C3637      H3644   1.085       .  S
C3638      C3639   1.411       .  A
C3639      C3640   1.396       .  A
C3639      C3646   1.507       .  S
C3640      C3641   1.406       .  A
C3640      H3645   1.084       .  S
C3641      C3642   1.423       .  A
C3642      C3643   1.508       .  S
C3643      H3647   1.111       .  S
C3643      H3648   1.111       .  S
C3643      H3649   1.109       .  S
C3646      H4910   1.109       .  S
C3646      H3651   1.108       .  S
C3646      H3652   1.111       .  S
H3650      C4906   1.110       .  S
C3653      C3654   1.402       .  A
C3653      C3658   1.405       .  A
C3653      H3660   1.085       .  S
C3654      C3655   1.415       .  A
C3655      C3656   1.398       .  A
C3655      C3662   1.508       .  S
C3656      C3657   1.403       .  A
C3656      H3661   1.085       .  S
C3657      C3658   1.418       .  A
C3658      C3659   1.508       .  S
C3659      H3663   1.111       .  S
C3659      H3664   1.109       .  S
C3659      H3665   1.111       .  S
C3662      H3666   1.108       .  S
C3662      H4927   1.107       .  S
C3662      H4928   1.111       .  S
H3667      C4922   1.107       .  S
H3668      C4922   1.111       .  S
C3669      C3670   1.399       .  A
C3669      C3674   1.402       .  A
C3669      H3676   1.083       .  S
C3670      C3671   1.410       .  A
C3671      C3672   1.400       .  A
C3671      C3678   1.509       .  S
C3672      C3673   1.404       .  A
C3672      H3677   1.085       .  S
C3673      C3674   1.415       .  A
C3674      C3675   1.508       .  S
C3675      H3679   1.111       .  S
C3675      H3680   1.111       .  S
C3675      H3681   1.110       .  S
C3678      H3682   1.109       .  S
C3678      H3683   1.111       .  S
C3678      H3684   1.111       .  S
C3685      C3686   1.398       .  A
C3685      C3690   1.401       .  A
C3685      H3692   1.085       .  S
C3686      C3687   1.408       .  A
C3687      C3688   1.403       .  A
C3687      C3694   1.508       .  S
C3688      C3689   1.410       .  A
C3688      H3693   1.084       .  S
C3689      C3690   1.422       .  A
C3690      C3691   1.509       .  S
C3691      H3695   1.111       .  S
C3691      H3696   1.110       .  S
C3691      H3697   1.110       .  S
C3694      H3698   1.111       .  S
C3694      H3699   1.110       .  S
C3694      H3700   1.111       .  S
C3701      C3702   1.400       .  A
C3701      C3706   1.404       .  A
C3701      H3708   1.085       .  S
C3702      C3703   1.409       .  A
C3703      C3704   1.406       .  A
C3703      C3710   1.508       .  S
C3704      C3705   1.413       .  A
C3704      H3709   1.083       .  S
C3705      C3706   1.425       .  A
C3706      C3707   1.509       .  S
C3707      H3711   1.111       .  S
C3707      H3712   1.110       .  S
C3707      H3713   1.110       .  S
C3710      H3714   1.110       .  S
C3710      H3715   1.110       .  S
C3710      H3716   1.111       .  S
C3717      C3718   1.408       .  A
C3717      C3722   1.402       .  A
C3717      H3724   1.084       .  S
C3718      C3719   1.423       .  A
C3719      C3720   1.407       .  A
C3719      C3726   1.509       .  S
C3720      C3721   1.400       .  A
C3720      H3725   1.085       .  S
C3721      C3722   1.412       .  A
C3722      C3723   1.508       .  S
C3723      H3727   1.111       .  S
C3723      H3728   1.109       .  S
C3723      H3729   1.109       .  S
C3726      H3730   1.110       .  S
C3726      H3731   1.109       .  S
C3726      H3732   1.111       .  S
C3733      C3734   1.410       .  A
C3733      C3738   1.404       .  A
C3733      H3740   1.084       .  S
C3734      C3735   1.427       .  A
C3735      C3736   1.406       .  A
C3735      C3742   1.509       .  S
C3736      C3737   1.398       .  A
C3736      H3741   1.085       .  S
C3737      C3738   1.408       .  A
C3738      C3739   1.506       .  S
C3739      H3743   1.111       .  S
C3739      H3744   1.109       .  S
C3739      H3745   1.111       .  S
C3742      H3746   1.110       .  S
C3742      H3747   1.111       .  S
C3742      H3748   1.111       .  S
C3749      C3750   1.402       .  A
C3749      C3754   1.408       .  A
C3749      H3756   1.084       .  S
C3750      C3751   1.414       .  A
C3751      C3752   1.400       .  A
C3751      C3758   1.509       .  S
C3752      C3753   1.401       .  A
C3752      H3757   1.085       .  S
C3753      C3754   1.415       .  A
C3754      C3755   1.505       .  S
C3755      H3759   1.111       .  S
C3755      H3760   1.108       .  S
C3755      H3761   1.110       .  S
C3758      H3762   1.107       .  S
C3758      H3763   1.111       .  S
C3758      H3764   1.111       .  S
C3765      C3766   1.403       .  A
C3765      C3770   1.403       .  A
C3765      H3772   1.083       .  S
C3766      C3767   1.412       .  A
C3767      C3768   1.401       .  A
C3767      C3774   1.509       .  S
C3768      C3769   1.402       .  A
C3768      H3773   1.084       .  S
C3769      C3770   1.413       .  A
C3770      C3771   1.507       .  S
C3771      H3775   1.111       .  S
C3771      H3776   1.109       .  S
C3771      H3777   1.110       .  S
C3774      H3778   1.109       .  S
C3774      H3779   1.110       .  S
C3774      H3780   1.111       .  S
Fe3781     O3797   2.043       .  S
Fe3781     O3787   2.057       .  S
Fe3781     O3794   2.056       .  S
Fe3781     O3786   2.047       .  S
Fe3781     O3792   1.968       .  S
Fe3782     O3785   2.059       .  S
Fe3782     O3789   2.084       .  S
Fe3782     O3793   2.076       .  S
Fe3782     O3798   2.067       .  S
Fe3782     O3792   1.981       .  S
Fe3783     O3801   2.066       .  S
Fe3783     O3788   2.065       .  S
Fe3783     O3795   2.074       .  S
Fe3783     O3784   2.076       .  S
Fe3783     O3792   1.986       .  S
O3784      C3791   1.269       .  A
O3785      C3799   1.267       .  A
O3786      C3791   1.266       .  A
O3787      C3790   1.268       .  A
O3788      C3800   1.270       .  A
O3789      C3802   1.271       .  A
C3790      O3795   1.269       .  A
C3790      C4383   1.478       .  S
C3791      C4396   1.472       .  S
O3793      C3796   1.268       .  A
O3794      C3796   1.266       .  A
C3796      C4367   1.475       .  S
O3797      C3802   1.264       .  A
O3798      C3800   1.269       .  A
C3799      O3801   1.271       .  A
C3799      C4319   1.492       .  S
C3800      C4335   1.497       .  S
C3802      C4351   1.479       .  S
Fe3803     O3819   2.041       .  S
Fe3803     O3809   2.042       .  S
Fe3803     O3816   2.036       .  S
Fe3803     O3808   2.053       .  S
Fe3803     O3814   1.958       .  S
Fe3804     O3807   2.071       .  S
Fe3804     O3815   2.085       .  S
Fe3804     O3820   2.056       .  S
Fe3805     O3823   2.068       .  S
Fe3805     O3810   2.063       .  S
Fe3805     O3817   2.073       .  S
Fe3805     O3806   2.078       .  S
Fe3805     O3814   1.976       .  S
O3806      C3813   1.270       .  A
O3807      C3821   1.274       .  A
O3808      C3813   1.267       .  A
O3809      C3812   1.265       .  A
O3811      C3824   1.267       .  A
C3812      O3817   1.268       .  A
C3812      C4303   1.474       .  S
C3813      C4380   1.473       .  S
O3816      C3818   1.264       .  A
C3818      C4284   1.475       .  S
O3819      C3824   1.263       .  A
O3820      C3822   1.268       .  A
C3821      C4236   1.494       .  S
C3822      C4252   1.481       .  S
C3824      C4268   1.471       .  S
Fe3825     O3841   2.046       .  S
Fe3825     O3831   2.045       .  S
Fe3825     O3838   2.040       .  S
Fe3825     O3830   2.048       .  S
Fe3825     O3836   1.966       .  S
Fe3826     O3829   2.061   1_455  S
Fe3826     O3842   2.060   1_455  S
Fe3827     O3845   2.061       .  S
Fe3827     O3832   2.061       .  S
Fe3827     O3839   2.079       .  S
Fe3827     O3828   2.064       .  S
Fe3827     O3836   1.987       .  S
O3828      C3835   1.266       .  A
O3829      C3843   1.271   1_655  A
O3830      C3835   1.266       .  A
O3831      C3834   1.265       .  A
O3833      C3846   1.270       .  A
C3834      O3839   1.269       .  A
C3834      C4399   1.473       .  S
C3835      C4300   1.465       .  S
O3837      C3840   1.268       .  A
O3838      C3840   1.263       .  A
C3840      C4204   1.467       .  S
O3841      C3846   1.264       .  A
O3842      C3844   1.268   1_655  A
C3843      C4191   1.488   1_455  S
C3844      C4175   1.487   1_455  S
C3846      C4220   1.480       .  S
Fe3847     O3863   2.037       .  S
Fe3847     O3853   2.042   1_554  S
Fe3847     O3860   2.043       .  S
Fe3847     O3852   2.037       .  S
Fe3847     O3858   1.967   1_554  S
Fe3848     O4481   2.069   1_554  S
Fe3848     O3855   2.084       .  S
Fe3848     O3859   2.080       .  S
Fe3848     O4494   2.067   1_554  S
Fe3848     O3858   1.976   1_554  S
Fe3849     O3867   2.060       .  S
Fe3849     O3854   2.062       .  S
Fe3849     O3861   2.074       .  S
Fe3849     O3850   2.079       .  S
Fe3849     O4488   1.987       .  S
O3850      C3857   1.268       .  A
O3851     Fe4478   2.068       .  S
O3851      C3865   1.271       .  A
O3852      C4487   1.264   1_554  A
O3853      C4486   1.265       .  A
O3854      C3866   1.268       .  A
O3855      C3868   1.270       .  A
C3856      O4483   1.265       .  A
C3856      O3861   1.269       .  A
C3856      C4156   1.470       .  S
C3857      O4482   1.263       .  A
C3857      C4140   1.473       .  S
O3858     Fe4479   1.986       .  S
O3859      C3862   1.271       .  A
O3860      C3862   1.264       .  A
C3862      C4332   1.474       .  S
O3863      C3868   1.262       .  A
O3864     Fe4478   2.066       .  S
O3864      C3866   1.271       .  A
C3865      O3867   1.267       .  A
C3865      C4124   1.492       .  S
C3866      C4108   1.492       .  S
C3868      C4239   1.479       .  S
Fe3869     O3885   2.046       .  S
Fe3869     O3875   2.042       .  S
Fe3869     O3882   2.046       .  S
Fe3869     O3874   2.049       .  S
Fe3869     O3880   1.965       .  S
Fe3870     O4503   2.056   1_554  S
Fe3870     O3877   2.077       .  S
Fe3870     O3881   2.070       .  S
Fe3870     O4516   2.066   1_554  S
Fe3870     O3880   1.979       .  S
Fe3871     O3889   2.055       .  S
Fe3871     O3876   2.053       .  S
Fe3871     O3883   2.069       .  S
Fe3871     O3872   2.071       .  S
Fe3871     O4510   1.987       .  S
O3872      C3879   1.268       .  A
O3873     Fe4500   2.055       .  S
O3873      C3887   1.269       .  A
O3874      C4509   1.269   1_554  A
O3875      C4508   1.263   1_554  A
O3876      C3888   1.268       .  A
O3877      C3890   1.270       .  A
C3878      O4505   1.264       .  A
C3878      O3883   1.266       .  A
C3878      C4092   1.468       .  S
C3879      O4504   1.268       .  A
C3879      C4159   1.476       .  S
O3880     Fe4501   1.988   1_554  S
O3881      C3884   1.268       .  A
O3882      C3884   1.264       .  A
C3884      C4255   1.474       .  S
O3885      C3890   1.264       .  A
O3886     Fe4500   2.068       .  S
O3886      C3888   1.268       .  A
C3887      O3889   1.267       .  A
C3887      C4063   1.479       .  S
C3888      C4079   1.494       .  S
C3890      C4188   1.479       .  S
Fe3891     O3907   2.044       .  S
Fe3891     O3897   2.058   1_554  S
Fe3891     O3904   2.050       .  S
Fe3891     O3896   2.043       .  S
Fe3891     O3902   1.958       .  S
Fe3892     O4525   2.057   1_554  S
Fe3892     O3899   2.075       .  S
Fe3892     O3903   2.065       .  S
Fe3892     O4538   2.063   1_554  S
Fe3892     O3902   1.970       .  S
Fe3893     O3911   2.064       .  S
Fe3893     O3898   2.052       .  S
Fe3893     O3905   2.061       .  S
Fe3893     O3894   2.071       .  S
Fe3893     O4532   1.976       .  S
O3894      C3901   1.269       .  A
O3895     Fe4522   2.058       .  S
O3895      C3909   1.268       .  A
O3896      C4531   1.265   1_554  A
O3897      C4530   1.268       .  A
O3898      C3910   1.265       .  A
O3899      C3912   1.270       .  A
C3900      O4527   1.268       .  A
C3900      O3905   1.266       .  A
C3900      C4143   1.469       .  S
C3901      O4526   1.265       .  A
C3901      C4095   1.470       .  S
O3902     Fe4523   1.977   1_554  S
O3903      C3906   1.267       .  A
O3904      C3906   1.264       .  A
C3906      C4172   1.476       .  S
O3907      C3912   1.267       .  A
O3908     Fe4522   2.064       .  S
O3908      C3910   1.271       .  A
C3909      O3911   1.268       .  A
C3909      C4028   1.482       .  S
C3910      C4044   1.488       .  S
C3912      C4316   1.467       .  S
Fe3913     O3929   2.036       .  S
Fe3913     O3919   2.036       .  S
Fe3913     O3926   2.037       .  S
Fe3913     O3918   2.038       .  S
Fe3913     O3924   1.967       .  S
Fe3914     O3917   2.071       .  S
Fe3914     O3921   2.078       .  S
Fe3914     O3925   2.082       .  S
Fe3914     O3930   2.061       .  S
Fe3914     O3924   1.979       .  S
Fe3915     O3933   2.066       .  S
Fe3915     O3920   2.058       .  S
Fe3915     O3927   2.077       .  S
Fe3915     O3916   2.083       .  S
Fe3915     O3924   1.990       .  S
O3916      C3923   1.269       .  A
O3917      C3931   1.272       .  A
O3918      C3923   1.265       .  A
O3919      C3922   1.264       .  A
O3920      C3932   1.267       .  A
O3921      C3934   1.270       .  A
C3922      O3927   1.268       .  A
C3922      C4012   1.472       .  S
O3925      C3928   1.270       .  A
O3926      C3928   1.263       .  A
C3928      C4076   1.473       .  S
O3929      C3934   1.262       .  A
O3930      C3932   1.269       .  A
C3931      O3933   1.269       .  A
C3931      C4348   1.494       .  S
C3932      C4287   1.483       .  S
C3934      C4031   1.474       .  S
Fe3935     O3951   2.050       .  S
Fe3935     O3941   2.041       .  S
Fe3935     O3948   2.035       .  S
Fe3935     O3940   2.049       .  S
Fe3935     O3946   1.966       .  S
Fe3936     O3939   2.059       .  S
Fe3936     O3943   2.075       .  S
Fe3936     O3947   2.075       .  S
Fe3936     O3952   2.061       .  S
Fe3936     O3946   1.979       .  S
Fe3937     O3955   2.053       .  S
Fe3937     O3942   2.060       .  S
Fe3937     O3949   2.071       .  S
Fe3937     O3938   2.063       .  S
Fe3937     O3946   1.987       .  S
O3938      C3945   1.266       .  A
O3939      C3953   1.270       .  A
O3940      C3945   1.266       .  A
O3941      C3944   1.264       .  A
O3942      C3954   1.269       .  A
O3943      C3956   1.268       .  A
C3944      O3949   1.268       .  A
O3947      C3950   1.269       .  A
O3948      C3950   1.263       .  A
C3950      C4047   1.470       .  S
O3951      C3956   1.264       .  A
O3952      C3954   1.267       .  A
C3953      O3955   1.266       .  A
C3953      C4271   1.487       .  S
C3954      C4207   1.493       .  S
C3956      C4127   1.477       .  S
Fe3957     O3973   2.033       .  S
Fe3957     O3963   2.052       .  S
Fe3957     O3970   2.053       .  S
Fe3957     O3962   2.038       .  S
Fe3957     O3968   1.965       .  S
Fe3958     O3961   2.066       .  S
Fe3958     O3965   2.079       .  S
Fe3958     O3969   2.073       .  S
Fe3958     O3974   2.072       .  S
Fe3958     O3968   1.982       .  S
Fe3959     O3977   2.063       .  S
Fe3959     O3964   2.065       .  S
Fe3959     O3971   2.072       .  S
Fe3959     O3960   2.077       .  S
Fe3959     O3968   1.986       .  S
O3960      C3967   1.269       .  A
O3961      C3975   1.270       .  A
O3962      C3967   1.264       .  A
O3963      C3966   1.267       .  A
O3964      C3976   1.268       .  A
O3965      C3978   1.270       .  A
C3966      O3971   1.268       .  A
C3967      C3980   1.470       .  S
O3969      C3972   1.269       .  A
O3970      C3972   1.265       .  A
C3972      C4111   1.480       .  S
O3973      C3978   1.263       .  A
O3974      C3976   1.272       .  A
C3975      O3977   1.268       .  A
C3975      C4223   1.488       .  S
C3976      C4364   1.500       .  S
C3978      C4060   1.472       .  S
C3979      C3980   1.403       .  A
C3979      C3984   1.399       .  A
C3979      H3986   1.085       .  S
C3980      C3981   1.412       .  A
C3981      C3982   1.404       .  A
C3981      C3988   1.507       .  S
C3982      C3983   1.403       .  A
C3983      C3984   1.412       .  A
C3984      C3985   1.510       .  S
C3985      H3989   1.111       .  S
C3985      H3990   1.110       .  S
C3985      H3991   1.109       .  S
C3988      H3992   1.110       .  S
C3988      H3993   1.111       .  S
C3988      H3994   1.111       .  S
C3995      C3996   1.403       .  A
C3995      C4000   1.399       .  A
C3995      H4002   1.085       .  S
C3996      C3997   1.412       .  A
C3997      C3998   1.408       .  A
C3997      C4004   1.503       .  S
C3998      C3999   1.405       .  A
C3998      H4003   1.084       .  S
C3999      C4000   1.413       .  A
C4000      C4001   1.509       .  S
C4001      H4005   1.111       .  S
C4001      H4006   1.110       .  S
C4001      H4007   1.108       .  S
C4004      H4010   1.111       .  S
C4011      C4012   1.404       .  A
C4011      C4016   1.399       .  A
C4011      H4018   1.085       .  S
C4012      C4013   1.412       .  A
C4013      C4014   1.403       .  A
C4013      C4020   1.503       .  S
C4014      C4015   1.402       .  A
C4014      H4019   1.084       .  S
C4015      C4016   1.412       .  A
C4016      C4017   1.510       .  S
C4017      H4021   1.111       .  S
C4017      H4023   1.110       .  S
C4020      H4024   1.107       .  S
C4020      H4025   1.110       .  S
C4020      H4026   1.111       .  S
C4027      C4028   1.404       .  A
C4027      C4032   1.400       .  A
C4027      H4034   1.084       .  S
C4028      C4029   1.418       .  A
C4029      C4030   1.404       .  A
C4029      C4036   1.508       .  S
C4030      C4031   1.401       .  A
C4030      H4035   1.084       .  S
C4031      C4032   1.415       .  A
C4032      C4033   1.510       .  S
C4033      H4037   1.111       .  S
C4033      H4038   1.110       .  S
C4033      H4039   1.109       .  S
C4036      H4040   1.111       .  S
C4036      H4041   1.109       .  S
C4036      H4042   1.111       .  S
C4043      C4048   1.395       .  A
C4043      H4050   1.084       .  S
C4044      C4045   1.423       .  A
C4045      C4046   1.406   1_655  A
C4045      C4052   1.509       .  S
C4046      H4051   1.085       .  S
C4047      C4048   1.411       .  A
C4048      C4049   1.508       .  S
C4049      H4053   1.111       .  S
C4049      H4054   1.108       .  S
C4049      H4055   1.108       .  S
C4052      H4056   1.109       .  S
C4052      H4057   1.111       .  S
C4052      H4058   1.111       .  S
C4059      C4064   1.404   1_455  A
C4059      H4066   1.084       .  S
C4060      C4061   1.414       .  A
C4061      C4062   1.395       .  A
C4061      C4068   1.508       .  S
C4062      H4067   1.084       .  S
C4063      C4064   1.419       .  A
C4064      C4065   1.508       .  S
C4065      H4069   1.111       .  S
C4065      H4070   1.111       .  S
C4065      H4071   1.109       .  S
C4068      H4072   1.106       .  S
C4068      H4073   1.108       .  S
C4068      H4074   1.111       .  S
C4075      C4076   1.401       .  A
C4075      H4082   1.084       .  S
C4076      C4077   1.409   1_565  A
C4077      C4084   1.508   1_545  S
C4078      C4079   1.412       .  A
C4078      H4083   1.083       .  S
C4079      C4080   1.423       .  A
C4080      C4081   1.509       .  S
C4081      H4085   1.111       .  S
C4081      H4086   1.110       .  S
C4081      H4087   1.110       .  S
C4084      H4088   1.110       .  S
C4084      H4089   1.111       .  S
C4084      H4090   1.111   1_565  S
C4091      C4092   1.401       .  A
C4091      C4096   1.400       .  A
C4091      H4098   1.084       .  S
C4092      C4093   1.411       .  A
C4093      C4094   1.401       .  A
C4093      C4100   1.502       .  S
C4094      C4095   1.402       .  A
C4094      H4099   1.084       .  S
C4095      C4096   1.413       .  A
C4096      C4097   1.509       .  S
C4097      H4101   1.111       .  S
C4097      H4732   1.108       .  S
C4097      H4103   1.110       .  S
C4100      H4734   1.108       .  S
C4100      H4105   1.110       .  S
C4100      H4106   1.111       .  S
H4102      C4727   1.108       .  S
H4104      C4730   1.108       .  S
C4107      C4108   1.407       .  A
C4107      C4112   1.400       .  A
C4107      H4114   1.084       .  S
C4108      C4109   1.422       .  A
C4109      C4110   1.406       .  A
C4109      C4116   1.508       .  S
C4110      C4111   1.402       .  A
C4110      H4115   1.085       .  S
C4111      C4112   1.414       .  A
C4112      C4113   1.507       .  S
C4113      H4117   1.111       .  S
C4113      H4118   1.108       .  S
C4113      H4119   1.107       .  S
C4116      H4120   1.109       .  S
C4116      H4121   1.111       .  S
C4116      H4122   1.111       .  S
C4123      C4124   1.407       .  A
C4124      C4125   1.424       .  A
C4125      C4126   1.405       .  A
C4125      C4132   1.509       .  S
C4126      H4131   1.085       .  S
C4127      C4128   1.412       .  A
C4128      C4129   1.507       .  S
C4129      H4133   1.111       .  S
C4129      H4134   1.108       .  S
C4129      H4135   1.109       .  S
C4132      H4136   1.110       .  S
C4132      H4137   1.110       .  S
C4132      H4138   1.111       .  S
C4139      C4140   1.403       .  A
C4139      C4144   1.405       .  A
C4139      H4146   1.084       .  S
C4140      C4141   1.414       .  A
C4141      C4142   1.397       .  A
C4141      C4148   1.509       .  S
C4142      C4143   1.400       .  A
C4142      H4147   1.085       .  S
C4143      C4144   1.416       .  A
C4144      C4145   1.508       .  S
C4145      H4149   1.110       .  S
C4145      H4150   1.111       .  S
C4145      H4151   1.106       .  S
C4148      H4782   1.111       .  S
C4148      H4153   1.109       .  S
C4148      H4154   1.110       .  S
H4152      C4778   1.111       .  S
C4155      C4156   1.402       .  A
C4155      C4160   1.406       .  A
C4155      H4162   1.084       .  S
C4156      C4787   1.414       .  A
C4157      C4786   1.414       .  A
C4157      C4158   1.396       .  A
C4157      C4164   1.510   1_556  S
C4158      C4789   1.401       .  A
C4158      H4163   1.085   1_556  S
C4159      C4788   1.402       .  A
C4159      C4160   1.415       .  A
C4160      C4161   1.505       .  S
C4161      H4165   1.111       .  S
C4161      H4166   1.110       .  S
C4161      H4167   1.103       .  S
C4164      H4168   1.110       .  S
C4164      H4169   1.107       .  S
C4164      H4170   1.111       .  S
C4171      C4172   1.401       .  A
C4171      C4176   1.404       .  A
C4171      H4178   1.087       .  S
C4172      C4173   1.414       .  A
C4173      C4174   1.400       .  A
C4173      C4180   1.510       .  S
C4174      C4175   1.406       .  A
C4174      H4179   1.086       .  S
C4175      C4176   1.421       .  A
C4176      C4177   1.509   1_655  S
C4177      H4181   1.111       .  S
C4177      H4182   1.109       .  S
C4177      H4183   1.111       .  S
C4180      H4184   1.108       .  S
C4180      H4185   1.110       .  S
C4180      H4186   1.111       .  S
C4187      C4188   1.404       .  A
C4187      C4192   1.407       .  A
C4187      H4194   1.084       .  S
C4188      C4189   1.413       .  A
C4189      C4190   1.398       .  A
C4189      C4196   1.509       .  S
C4190      C4191   1.406       .  A
C4190      H4195   1.084       .  S
C4191      C4192   1.420       .  A
C4193      H4197   1.111       .  S
C4193      H4198   1.110       .  S
C4193      H4199   1.109       .  S
C4196      H4200   1.108       .  S
C4196      H4201   1.109       .  S
C4196      H4202   1.111       .  S
C4203      C4204   1.398       .  A
C4203      C4208   1.402       .  A
C4203      H4210   1.085       .  S
C4204      C4205   1.407       .  A
C4205      C4206   1.402       .  A
C4206      C4207   1.412       .  A
C4206      H4211   1.083       .  S
C4207      C4208   1.424       .  A
C4208      C4209   1.509       .  S
C4209      H4213   1.111       .  S
C4209      H4214   1.110       .  S
C4209      H4215   1.110       .  S
C4212      H4216   1.110   1_455  S
C4212      H4217   1.111       .  S
C4212      H4218   1.111       .  S
C4219      C4220   1.402       .  A
C4219      C4224   1.406       .  A
C4219      H4226   1.084       .  S
C4220      C4221   1.416       .  A
C4221      C4222   1.402       .  A
C4222      C4223   1.405       .  A
C4222      H4227   1.084       .  S
C4223      C4224   1.420       .  A
C4224      C4225   1.508       .  S
C4225      H4229   1.108       .  S
C4225      H4230   1.111       .  S
C4225      H4231   1.111       .  S
C4228      H4232   1.111       .  S
C4228      H4234   1.111       .  S
C4235      C4236   1.408       .  A
C4235      C4240   1.400       .  A
C4235      H4242   1.084       .  S
C4236      C4237   1.422       .  A
C4237      C4238   1.408       .  A
C4237      C4244   1.508       .  S
C4238      C4239   1.402       .  A
C4238      H4243   1.084       .  S
C4239      C4240   1.414       .  A
C4240      C4241   1.510       .  S
C4241      H4245   1.111       .  S
C4241      H4246   1.111       .  S
C4241      H4247   1.108       .  S
C4244      H4249   1.109       .  S
C4244      H4250   1.111       .  S
C4251      C4252   1.404       .  A
C4251      C4256   1.399       .  A
C4251      H4258   1.084       .  S
C4252      C4253   1.418       .  A
C4253      C4254   1.404       .  A
C4253      C4260   1.508       .  S
C4254      C4255   1.402       .  A
C4254      H4259   1.084       .  S
C4255      C4256   1.413       .  A
C4256      C4257   1.507       .  S
C4257      H4261   1.111       .  S
C4257      H4262   1.109       .  S
C4257      H4263   1.109       .  S
C4260      H4264   1.109       .  S
C4260      H4266   1.111       .  S
C4267      C4268   1.400       .  A
C4267      C4272   1.405       .  A
C4267      H4274   1.085       .  S
C4268      C4269   1.411       .  A
C4269      C4270   1.396       .  A
C4269      C4276   1.508       .  S
C4270      C4271   1.406       .  A
C4270      H4275   1.084       .  S
C4271      C4272   1.423       .  A
C4272      C4273   1.509       .  S
C4273      H4277   1.111       .  S
C4273      H4278   1.111       .  S
C4273      H4279   1.109       .  S
C4276      H4281   1.109       .  S
C4276      H4282   1.111       .  S
C4283      C4284   1.402       .  A
C4283      C4288   1.406       .  A
C4283      H4290   1.085       .  S
C4284      C4285   1.414       .  A
C4285      C4286   1.398       .  A
C4285      C4292   1.508       .  S
C4286      C4287   1.404       .  A
C4286      H4291   1.085       .  S
C4287      C4288   1.419       .  A
C4288      C4289   1.508       .  S
C4289      H4293   1.111   1_565  S
C4289      H4294   1.109       .  S
C4289      H4295   1.111       .  S
C4292      H4296   1.108       .  S
C4299      C4300   1.399       .  A
C4299      C4304   1.402       .  A
C4299      H4306   1.083       .  S
C4300      C4301   1.410       .  A
C4301      C4302   1.400       .  A
C4301      C4308   1.509       .  S
C4302      C4303   1.404       .  A
C4302      H4307   1.085       .  S
C4303      C4304   1.416       .  A
C4304      C4305   1.508       .  S
C4305      H4309   1.111       .  S
C4305      H4310   1.110       .  S
C4305      H4311   1.110       .  S
C4308      H4312   1.109       .  S
C4308      H4313   1.111       .  S
C4308      H4314   1.111       .  S
C4315      C4316   1.398       .  A
C4315      C4320   1.402       .  A
C4315      H4322   1.085       .  S
C4316      C4317   1.407       .  A
C4317      C4318   1.403       .  A
C4317      C4324   1.508       .  S
C4318      C4319   1.410       .  A
C4318      H4323   1.084       .  S
C4319      C4320   1.423       .  A
C4320      C4321   1.509       .  S
C4321      H4325   1.111       .  S
C4321      H4326   1.110       .  S
C4321      H4327   1.111       .  S
C4324      H4328   1.111       .  S
C4324      H4329   1.110       .  S
C4324      H4330   1.111       .  S
C4331      C4332   1.400       .  A
C4331      C4336   1.403       .  A
C4331      H4338   1.085       .  S
C4332      C4333   1.409       .  A
C4333      C4334   1.405       .  A
C4333      C4340   1.508       .  S
C4334      C4335   1.412       .  A
C4334      H4339   1.083       .  S
C4335      C4336   1.424       .  A
C4336      C4337   1.509       .  S
C4337      H4341   1.111       .  S
C4337      H4342   1.110       .  S
C4337      H4343   1.110       .  S
C4340      H4344   1.110       .  S
C4340      H4345   1.110       .  S
C4340      H4346   1.111       .  S
C4347      C4348   1.407       .  A
C4347      C4352   1.402       .  A
C4347      H4354   1.084       .  S
C4348      C4349   1.423       .  A
C4349      C4350   1.408       .  A
C4349      C4356   1.508       .  S
C4350      C4351   1.402       .  A
C4350      H4355   1.085       .  S
C4351      C4352   1.413       .  A
C4352      C4353   1.509       .  S
C4353      H4357   1.111       .  S
C4353      H4358   1.109       .  S
C4353      H4359   1.109       .  S
C4356      H4360   1.110       .  S
C4356      H4361   1.109       .  S
C4356      H4362   1.111       .  S
C4363      C4364   1.410       .  A
C4363      C4368   1.403       .  A
C4363      H4370   1.084       .  S
C4364      C4365   1.426       .  A
C4365      C4366   1.407       .  A
C4365      C4372   1.509       .  S
C4366      C4367   1.400       .  A
C4366      H4371   1.085       .  S
C4367      C4368   1.408       .  A
C4368      C4369   1.507       .  S
C4369      H4373   1.111       .  S
C4369      H4374   1.109       .  S
C4369      H4375   1.111       .  S
C4372      H4376   1.109       .  S
C4372      H4377   1.111       .  S
C4372      H4378   1.111       .  S
C4379      C4380   1.402       .  A
C4379      C4384   1.408       .  A
C4379      H4386   1.084       .  S
C4380      C4381   1.413       .  A
C4381      C4382   1.401       .  A
C4381      C4388   1.508       .  S
C4382      C4383   1.402       .  A
C4382      H4387   1.085       .  S
C4383      C4384   1.415       .  A
C4384      C4385   1.505       .  S
C4385      H4389   1.111       .  S
C4385      H4390   1.108       .  S
C4385      H4391   1.110       .  S
C4388      H4392   1.107       .  S
C4388      H4393   1.111       .  S
C4388      H4394   1.111       .  S
C4395      C4396   1.402       .  A
C4395      C4400   1.404       .  A
C4395      H4402   1.082       .  S
C4396      C4397   1.412       .  A
C4397      C4398   1.402       .  A
C4397      C4404   1.509       .  S
C4398      C4399   1.403       .  A
C4398      H4403   1.084       .  S
C4399      C4400   1.413       .  A
C4400      C4401   1.506       .  S
C4401      H4405   1.111       .  S
C4401      H4406   1.109       .  S
C4401      H4407   1.110       .  S
C4404      H4408   1.109       .  S
C4404      H4409   1.110       .  S
C4404      H4410   1.111       .  S
Fe4411     O4427   2.041       .  S
Fe4411     O4417   2.056       .  S
Fe4411     O4424   2.055       .  S
Fe4411     O4416   2.044       .  S
Fe4411     O4422   1.968       .  S
Fe4412     O4415   2.059       .  S
Fe4412     O4419   2.083       .  S
Fe4412     O4423   2.075       .  S
Fe4412     O4428   2.066       .  S
Fe4412     O4422   1.980       .  S
Fe4413     O4431   2.066       .  S
Fe4413     O4418   2.063       .  S
Fe4413     O4425   2.072       .  S
Fe4413     O4414   2.076       .  S
Fe4413     O4422   1.985       .  S
O4414      C4421   1.269       .  A
O4415      C4429   1.267       .  A
O4416      C4421   1.265       .  A
O4417      C4420   1.268       .  A
O4418      C4430   1.270       .  A
O4419      C4432   1.270       .  A
C4420      O4425   1.269       .  A
C4420      C5013   1.477       .  S
C4421      C5026   1.472       .  S
O4423      C4426   1.268       .  A
O4424      C4426   1.266       .  A
C4426      C4997   1.475       .  S
O4427      C4432   1.263       .  A
O4428      C4430   1.268       .  A
C4429      O4431   1.271       .  A
C4429      C4949   1.491       .  S
C4430      C4965   1.497       .  S
C4432      C4981   1.477       .  S
Fe4433     O4449   2.043       .  S
Fe4433     O4439   2.041       .  S
Fe4433     O4446   2.032       .  S
Fe4433     O4438   2.053       .  S
Fe4433     O4444   1.956       .  S
Fe4434     O4437   2.071       .  S
Fe4434     O4445   2.084       .  S
Fe4434     O4450   2.057       .  S
Fe4435     O4453   2.067       .  S
Fe4435     O4440   2.063       .  S
Fe4435     O4447   2.075       .  S
Fe4435     O4436   2.077       .  S
Fe4435     O4444   1.974       .  S
O4436      C4443   1.270       .  A
O4437      C4451   1.273       .  A
O4438      C4443   1.267       .  A
O4439      C4442   1.265       .  A
O4441      C4454   1.267       .  A
C4442      O4447   1.268       .  A
C4442      C4933   1.474       .  S
C4443      C5010   1.473       .  S
O4446      C4448   1.263       .  A
C4448      C4914   1.474       .  S
O4449      C4454   1.263       .  A
O4450      C4452   1.268       .  A
C4451      C4866   1.494       .  S
C4452      C4882   1.483       .  S
C4454      C4898   1.469       .  S
Fe4455     O4471   2.043       .  S
Fe4455     O4461   2.045       .  S
Fe4455     O4468   2.038       .  S
Fe4455     O4460   2.046       .  S
Fe4455     O4466   1.964       .  S
Fe4456     O4459   2.063   1_455  S
Fe4456     O4472   2.062   1_455  S
Fe4457     O4475   2.062       .  S
Fe4457     O4462   2.060       .  S
Fe4457     O4469   2.077       .  S
Fe4457     O4458   2.064       .  S
Fe4457     O4466   1.985       .  S
O4458      C4465   1.266       .  A
O4459      C4473   1.272   1_655  A
O4460      C4465   1.266       .  A
O4461      C4464   1.265       .  A
O4463      C4476   1.270       .  A
C4464      O4469   1.269       .  A
C4464      C5029   1.473       .  S
C4465      C4930   1.464       .  S
O4467      C4470   1.267       .  A
O4468      C4470   1.263       .  A
C4470      C4834   1.466       .  S
O4471      C4476   1.264       .  A
O4472      C4474   1.269   1_655  A
C4473      C4821   1.488   1_455  S
C4474      C4805   1.490   1_455  S
C4476      C4850   1.480       .  S
Fe4477     O4493   2.038       .  S
Fe4477     O4483   2.039       .  S
Fe4477     O4490   2.041       .  S
Fe4477     O4482   2.037       .  S
Fe4477     O4488   1.967       .  S
Fe4478     O4485   2.083       .  S
Fe4478     O4489   2.079       .  S
Fe4478     O4488   1.977       .  S
Fe4479     O4497   2.057       .  S
Fe4479     O4484   2.063       .  S
Fe4479     O4491   2.074       .  S
Fe4479     O4480   2.077       .  S
O4480      C4487   1.268       .  A
O4481      C4495   1.271       .  A
O4484      C4496   1.268       .  A
O4485      C4498   1.270       .  A
C4486      O4491   1.268       .  A
C4486      C4786   1.471       .  S
C4487      C4770   1.472       .  S
O4489      C4492   1.270       .  A
O4490      C4492   1.264       .  A
C4492      C4962   1.472       .  S
O4493      C4498   1.262       .  A
O4494      C4496   1.272       .  A
C4495      O4497   1.266       .  A
C4495      C4754   1.493       .  S
C4496      C4738   1.492       .  S
C4498      C4869   1.480       .  S
Fe4499     O4515   2.043       .  S
Fe4499     O4505   2.044       .  S
Fe4499     O4512   2.048       .  S
Fe4499     O4504   2.047       .  S
Fe4499     O4510   1.963       .  S
Fe4500     O4507   2.079       .  S
Fe4500     O4511   2.070       .  S
Fe4500     O4510   1.979       .  S
Fe4501     O4519   2.054       .  S
Fe4501     O4506   2.057       .  S
Fe4501     O4513   2.071       .  S
Fe4501     O4502   2.069       .  S
O4502      C4509   1.267       .  A
O4503      C4517   1.269       .  A
O4506      C4518   1.268       .  A
O4507      C4520   1.270       .  A
C4508      O4513   1.266       .  A
C4508      C4722   1.468       .  S
C4509      C4789   1.475       .  S
O4511      C4514   1.268       .  A
O4512      C4514   1.264       .  A
C4514      C4885   1.476       .  S
O4515      C4520   1.264       .  A
O4516      C4518   1.268       .  A
C4517      O4519   1.267       .  A
C4517      C4693   1.480       .  S
C4518      C4709   1.493       .  S
C4520      C4818   1.478       .  S
Fe4521     O4537   2.043       .  S
Fe4521     O4527   2.060       .  S
Fe4521     O4534   2.055       .  S
Fe4521     O4526   2.042       .  S
Fe4521     O4532   1.957       .  S
Fe4522     O4529   2.075       .  S
Fe4522     O4533   2.064       .  S
Fe4522     O4532   1.968       .  S
Fe4523     O4541   2.061       .  S
Fe4523     O4528   2.051       .  S
Fe4523     O4535   2.061       .  S
Fe4523     O4524   2.070       .  S
O4524      C4531   1.268       .  A
O4525      C4539   1.268       .  A
O4528      C4540   1.265       .  A
O4529      C4542   1.270       .  A
C4530      O4535   1.266       .  A
C4530      C4773   1.469       .  S
C4531      C4725   1.469       .  S
O4533      C4536   1.267       .  A
O4534      C4536   1.265       .  A
C4536      C4802   1.476       .  S
O4537      C4542   1.266       .  A
O4538      C4540   1.271       .  A
C4539      O4541   1.267       .  A
C4539      C4658   1.480       .  S
C4540      C4674   1.488       .  S
C4542      C4946   1.467       .  S
Fe4543     O4559   2.037       .  S
Fe4543     O4549   2.036       .  S
Fe4543     O4556   2.036       .  S
Fe4543     O4548   2.039       .  S
Fe4543     O4554   1.966       .  S
Fe4544     O4547   2.071       .  S
Fe4544     O4551   2.074       .  S
Fe4544     O4555   2.081       .  S
Fe4544     O4560   2.057       .  S
Fe4544     O4554   1.979       .  S
Fe4545     O4563   2.064       .  S
Fe4545     O4550   2.059       .  S
Fe4545     O4557   2.078       .  S
Fe4545     O4546   2.081       .  S
Fe4545     O4554   1.989       .  S
O4546      C4553   1.269       .  A
O4547      C4561   1.272       .  A
O4548      C4553   1.265       .  A
O4549      C4552   1.264       .  A
O4550      C4562   1.267       .  A
O4551      C4564   1.269       .  A
C4552      O4557   1.269       .  A
C4552      C4642   1.473       .  S
O4555      C4558   1.270       .  A
O4556      C4558   1.263       .  A
C4558      C4706   1.472       .  S
O4559      C4564   1.262       .  A
O4560      C4562   1.269       .  A
C4561      O4563   1.268       .  A
C4561      C4978   1.494       .  S
C4562      C4917   1.480       .  S
C4564      C4661   1.474       .  S
Fe4565     O4581   2.048       .  S
Fe4565     O4571   2.044       .  S
Fe4565     O4578   2.038       .  S
Fe4565     O4570   2.048       .  S
Fe4565     O4576   1.965       .  S
Fe4566     O4569   2.058       .  S
Fe4566     O4573   2.075       .  S
Fe4566     O4577   2.072       .  S
Fe4566     O4582   2.061       .  S
Fe4566     O4576   1.980       .  S
Fe4567     O4585   2.051       .  S
Fe4567     O4572   2.059       .  S
Fe4567     O4579   2.070       .  S
Fe4567     O4568   2.061       .  S
Fe4567     O4576   1.986       .  S
O4568      C4575   1.266       .  A
O4569      C4583   1.270       .  A
O4570      C4575   1.266       .  A
O4571      C4574   1.265       .  A
O4572      C4584   1.269       .  A
O4573      C4586   1.269       .  A
C4574      O4579   1.268       .  A
O4577      C4580   1.268       .  A
O4578      C4580   1.263       .  A
C4580      C4677   1.470       .  S
O4581      C4586   1.264       .  A
O4582      C4584   1.267       .  A
C4583      O4585   1.265       .  A
C4583      C4901   1.487       .  S
C4584      C4837   1.492       .  S
C4586      C4757   1.476       .  S
Fe4587     O4603   2.039       .  S
Fe4587     O4593   2.049       .  S
Fe4587     O4600   2.049       .  S
Fe4587     O4592   2.040       .  S
Fe4587     O4598   1.966       .  S
Fe4588     O4591   2.069       .  S
Fe4588     O4595   2.072       .  S
Fe4588     O4599   2.078       .  S
Fe4588     O4604   2.065       .  S
Fe4588     O4598   1.982       .  S
Fe4589     O4607   2.059       .  S
Fe4589     O4594   2.068       .  S
Fe4589     O4601   2.076       .  S
Fe4589     O4590   2.073       .  S
Fe4589     O4598   1.987       .  S
O4590      C4597   1.268       .  A
O4591      C4605   1.271       .  A
O4592      C4597   1.265       .  A
O4593      C4596   1.266       .  A
O4594      C4606   1.268       .  A
O4595      C4608   1.268       .  A
C4596      O4601   1.268       .  A
C4597      C4610   1.467       .  S
O4599      C4602   1.270       .  A
O4600      C4602   1.265       .  A
C4602      C4741   1.482       .  S
O4603      C4608   1.263       .  A
O4604      C4606   1.270       .  A
C4605      O4607   1.267       .  A
C4605      C4853   1.489       .  S
C4606      C4994   1.498       .  S
C4608      C4690   1.471       .  S
C4609      C4610   1.402       .  A
C4609      C4614   1.399       .  A
C4609      H4616   1.085       .  S
C4610      C4611   1.411       .  A
C4611      C4612   1.404       .  A
C4611      C4618   1.507       .  S
C4612      C4613   1.403       .  A
C4613      C4614   1.413       .  A
C4614      C4615   1.510       .  S
C4615      H4619   1.111       .  S
C4615      H4620   1.110       .  S
C4615      H4621   1.109       .  S
C4618      H4622   1.110       .  S
C4618      H4623   1.111       .  S
C4618      H4624   1.111       .  S
C4625      C4626   1.403       .  A
C4625      C4630   1.399       .  A
C4625      H4632   1.085       .  S
C4626      C4627   1.412       .  A
C4627      C4628   1.407       .  A
C4627      C4634   1.503       .  S
C4628      C4629   1.405       .  A
C4628      H4633   1.084       .  S
C4629      C4630   1.414       .  A
C4630      C4631   1.510       .  S
C4631      H4635   1.111       .  S
C4631      H4636   1.110       .  S
C4631      H4637   1.108       .  S
C4634      H4640   1.111       .  S
C4641      C4642   1.404       .  A
C4641      C4646   1.399       .  A
C4641      H4648   1.085       .  S
C4642      C4643   1.412       .  A
C4643      C4644   1.403       .  A
C4643      C4650   1.503       .  S
C4644      C4645   1.402       .  A
C4644      H4649   1.084       .  S
C4645      C4646   1.412       .  A
C4646      C4647   1.510       .  S
C4647      H4651   1.111       .  S
C4647      H4653   1.110       .  S
C4650      H4654   1.106       .  S
C4650      H4655   1.110       .  S
C4650      H4656   1.111       .  S
C4657      C4658   1.404       .  A
C4657      C4662   1.400       .  A
C4657      H4664   1.084       .  S
C4658      C4659   1.418       .  A
C4659      C4660   1.404       .  A
C4659      C4666   1.508       .  S
C4660      C4661   1.401       .  A
C4660      H4665   1.084       .  S
C4661      C4662   1.415       .  A
C4662      C4663   1.510       .  S
C4663      H4667   1.111       .  S
C4663      H4668   1.110       .  S
C4663      H4669   1.109       .  S
C4666      H4670   1.111       .  S
C4666      H4671   1.109       .  S
C4666      H4672   1.111       .  S
C4673      C4678   1.395       .  A
C4673      H4680   1.084       .  S
C4674      C4675   1.423       .  A
C4675      C4676   1.406   1_655  A
C4675      C4682   1.509       .  S
C4676      H4681   1.085       .  S
C4677      C4678   1.410       .  A
C4678      C4679   1.508       .  S
C4679      H4683   1.111       .  S
C4679      H4684   1.108       .  S
C4679      H4685   1.108       .  S
C4682      H4686   1.109       .  S
C4682      H4687   1.111       .  S
C4682      H4688   1.111       .  S
C4689      C4694   1.404   1_455  A
C4689      H4696   1.084       .  S
C4690      C4691   1.412       .  A
C4691      C4692   1.396       .  A
C4691      C4698   1.507       .  S
C4692      H4697   1.084       .  S
C4693      C4694   1.419       .  A
C4694      C4695   1.508       .  S
C4695      H4699   1.111       .  S
C4695      H4700   1.111       .  S
C4695      H4701   1.109       .  S
C4698      H4702   1.108       .  S
C4698      H4703   1.108       .  S
C4698      H4704   1.111       .  S
C4705      C4706   1.400       .  A
C4705      H4712   1.084       .  S
C4706      C4707   1.408   1_565  A
C4707      C4714   1.508   1_545  S
C4708      C4709   1.411       .  A
C4708      H4713   1.083       .  S
C4709      C4710   1.422       .  A
C4710      C4711   1.509       .  S
C4711      H4715   1.111       .  S
C4711      H4716   1.110   1_556  S
C4711      H4717   1.110       .  S
C4714      H4718   1.110       .  S
C4714      H4719   1.111       .  S
C4714      H4720   1.111   1_565  S
C4721      C4722   1.402       .  A
C4721      C4726   1.400       .  A
C4721      H4728   1.084       .  S
C4722      C4723   1.411       .  A
C4723      C4724   1.401       .  A
C4723      C4730   1.502       .  S
C4724      C4725   1.401       .  A
C4724      H4729   1.084       .  S
C4725      C4726   1.413       .  A
C4726      C4727   1.509   1_556  S
C4727      H4731   1.111       .  S
C4727      H4733   1.110   1_554  S
C4730      H4735   1.110       .  S
C4730      H4736   1.111       .  S
C4737      C4738   1.407       .  A
C4737      C4742   1.400       .  A
C4737      H4744   1.084       .  S
C4738      C4739   1.421       .  A
C4739      C4740   1.407       .  A
C4739      C4746   1.508       .  S
C4740      C4741   1.402       .  A
C4740      H4745   1.085       .  S
C4741      C4742   1.414       .  A
C4742      C4743   1.507       .  S
C4743      H4747   1.111       .  S
C4743      H4748   1.108       .  S
C4743      H4749   1.107       .  S
C4746      H4750   1.109       .  S
C4746      H4751   1.110       .  S
C4746      H4752   1.111       .  S
C4753      C4754   1.408       .  A
C4754      C4755   1.425       .  A
C4755      C4756   1.404       .  A
C4755      C4762   1.509       .  S
C4756      H4761   1.085       .  S
C4757      C4758   1.411       .  A
C4758      C4759   1.507       .  S
C4759      H4763   1.111       .  S
C4759      H4764   1.109       .  S
C4759      H4765   1.109       .  S
C4762      H4766   1.110       .  S
C4762      H4767   1.110       .  S
C4762      H4768   1.111       .  S
C4769      C4770   1.402       .  A
C4769      C4774   1.404       .  A
C4769      H4776   1.085       .  S
C4770      C4771   1.414       .  A
C4771      C4772   1.397       .  A
C4771      C4778   1.509   1_556  S
C4772      C4773   1.401       .  A
C4772      H4777   1.085   1_556  S
C4773      C4774   1.416       .  A
C4774      C4775   1.508       .  S
C4775      H4779   1.110       .  S
C4775      H4780   1.111       .  S
C4775      H4781   1.106       .  S
C4778      H4783   1.109       .  S
C4778      H4784   1.110       .  S
C4785      C4786   1.403       .  A
C4785      C4790   1.407       .  A
C4785      H4792   1.084       .  S
C4787      C4788   1.396       .  A
C4787      C4794   1.510       .  S
C4788      H4793   1.085       .  S
C4789      C4790   1.414       .  A
C4790      C4791   1.505       .  S
C4791      H4795   1.111       .  S
C4791      H4796   1.110       .  S
C4791      H4797   1.104       .  S
C4794      H4798   1.110       .  S
C4794      H4799   1.107       .  S
C4794      H4800   1.111       .  S
C4801      C4802   1.401       .  A
C4801      C4806   1.403       .  A
C4801      H4808   1.087       .  S
C4802      C4803   1.413       .  A
C4803      C4804   1.402       .  A
C4803      C4810   1.509       .  S
C4804      C4805   1.407       .  A
C4804      H4809   1.086       .  S
C4805      C4806   1.422       .  A
C4806      C4807   1.509   1_655  S
C4807      H4811   1.111       .  S
C4807      H4812   1.109       .  S
C4807      H4813   1.110       .  S
C4810      H4814   1.108       .  S
C4810      H4815   1.110       .  S
C4810      H4816   1.111       .  S
C4817      C4818   1.403       .  A
C4817      C4822   1.408       .  A
C4817      H4824   1.085       .  S
C4818      C4819   1.413       .  A
C4819      C4820   1.398       .  A
C4819      C4826   1.509       .  S
C4820      C4821   1.406       .  A
C4820      H4825   1.084       .  S
C4821      C4822   1.420       .  A
C4823      H4827   1.111       .  S
C4823      H4828   1.110       .  S
C4823      H4829   1.109       .  S
C4826      H4830   1.108       .  S
C4826      H4831   1.109       .  S
C4826      H4832   1.111       .  S
C4833      C4834   1.398       .  A
C4833      C4838   1.401       .  A
C4833      H4840   1.085       .  S
C4834      C4835   1.407       .  A
C4835      C4836   1.402       .  A
C4836      C4837   1.412       .  A
C4836      H4841   1.083       .  S
C4837      C4838   1.423       .  A
C4838      C4839   1.509       .  S
C4839      H4843   1.111       .  S
C4839      H4844   1.110       .  S
C4839      H4845   1.110       .  S
C4842      H4846   1.110   1_455  S
C4842      H4847   1.111       .  S
C4842      H4848   1.111       .  S
C4849      C4850   1.401       .  A
C4849      C4854   1.406       .  A
C4849      H4856   1.084       .  S
C4850      C4851   1.416       .  A
C4851      C4852   1.401       .  A
C4852      C4853   1.405       .  A
C4852      H4857   1.084       .  S
C4853      C4854   1.421       .  A
C4854      C4855   1.508       .  S
C4855      H4859   1.108       .  S
C4855      H4860   1.111       .  S
C4855      H4861   1.111       .  S
C4858      H4862   1.111       .  S
C4858      H4864   1.111       .  S
C4865      C4866   1.407       .  A
C4865      C4870   1.401       .  A
C4865      H4872   1.084       .  S
C4866      C4867   1.422       .  A
C4867      C4868   1.408       .  A
C4867      C4874   1.508       .  S
C4868      C4869   1.402       .  A
C4868      H4873   1.084       .  S
C4869      C4870   1.414       .  A
C4870      C4871   1.510       .  S
C4871      H4875   1.111       .  S
C4871      H4876   1.110       .  S
C4871      H4877   1.109       .  S
C4874      H4879   1.109       .  S
C4874      H4880   1.111       .  S
C4881      C4882   1.404       .  A
C4881      C4886   1.399       .  A
C4881      H4888   1.084       .  S
C4882      C4883   1.419       .  A
C4883      C4884   1.405       .  A
C4883      C4890   1.508       .  S
C4884      C4885   1.402       .  A
C4884      H4889   1.085       .  S
C4885      C4886   1.414       .  A
C4886      C4887   1.508       .  S
C4887      H4891   1.111       .  S
C4887      H4892   1.109       .  S
C4887      H4893   1.109       .  S
C4890      H4894   1.109       .  S
C4890      H4896   1.111       .  S
C4897      C4898   1.399       .  A
C4897      C4902   1.403       .  A
C4897      H4904   1.085       .  S
C4898      C4899   1.411       .  A
C4899      C4900   1.397       .  A
C4899      C4906   1.508       .  S
C4900      C4901   1.406       .  A
C4900      H4905   1.084       .  S
C4901      C4902   1.423       .  A
C4902      C4903   1.509       .  S
C4903      H4907   1.111       .  S
C4903      H4908   1.111       .  S
C4903      H4909   1.109       .  S
C4906      H4911   1.108       .  S
C4906      H4912   1.111       .  S
C4913      C4914   1.402       .  A
C4913      C4918   1.405       .  A
C4913      H4920   1.085       .  S
C4914      C4915   1.415       .  A
C4915      C4916   1.398       .  A
C4915      C4922   1.508       .  S
C4916      C4917   1.403       .  A
C4916      H4921   1.085       .  S
C4917      C4918   1.418       .  A
C4918      C4919   1.508       .  S
C4919      H4923   1.111   1_565  S
C4919      H4924   1.109       .  S
C4919      H4925   1.111       .  S
C4922      H4926   1.108       .  S
C4929      C4930   1.399       .  A
C4929      C4934   1.402       .  A
C4929      H4936   1.083       .  S
C4930      C4931   1.410       .  A
C4931      C4932   1.399       .  A
C4931      C4938   1.509       .  S
C4932      C4933   1.405       .  A
C4932      H4937   1.085       .  S
C4933      C4934   1.416       .  A
C4934      C4935   1.507       .  S
C4935      H4939   1.111       .  S
C4935      H4940   1.110       .  S
C4935      H4941   1.110       .  S
C4938      H4942   1.109       .  S
C4938      H4943   1.110       .  S
C4938      H4944   1.111       .  S
C4945      C4946   1.398       .  A
C4945      C4950   1.402       .  A
C4945      H4952   1.085       .  S
C4946      C4947   1.407       .  A
C4947      C4948   1.403       .  A
C4947      C4954   1.508       .  S
C4948      C4949   1.410       .  A
C4948      H4953   1.083       .  S
C4949      C4950   1.423       .  A
C4950      C4951   1.509       .  S
C4951      H4955   1.111       .  S
C4951      H4956   1.110       .  S
C4951      H4957   1.111       .  S
C4954      H4958   1.111       .  S
C4954      H4959   1.110       .  S
C4954      H4960   1.111       .  S
C4961      C4962   1.399       .  A
C4961      C4966   1.403       .  A
C4961      H4968   1.085       .  S
C4962      C4963   1.408       .  A
C4963      C4964   1.404       .  A
C4963      C4970   1.508       .  S
C4964      C4965   1.412       .  A
C4964      H4969   1.083       .  S
C4965      C4966   1.424       .  A
C4966      C4967   1.509       .  S
C4967      H4971   1.111       .  S
C4967      H4972   1.110       .  S
C4967      H4973   1.110       .  S
C4970      H4974   1.110       .  S
C4970      H4975   1.110       .  S
C4970      H4976   1.111       .  S
C4977      C4978   1.408       .  A
C4977      C4982   1.402       .  A
C4977      H4984   1.084       .  S
C4978      C4979   1.423       .  A
C4979      C4980   1.407       .  A
C4979      C4986   1.509       .  S
C4980      C4981   1.401       .  A
C4980      H4985   1.085       .  S
C4981      C4982   1.413       .  A
C4982      C4983   1.509       .  S
C4983      H4987   1.111       .  S
C4983      H4988   1.109       .  S
C4983      H4989   1.109       .  S
C4986      H4990   1.110       .  S
C4986      H4991   1.109       .  S
C4986      H4992   1.111       .  S
C4993      C4994   1.410       .  A
C4993      C4998   1.402       .  A
C4993      H5000   1.084       .  S
C4994      C4995   1.425       .  A
C4995      C4996   1.407       .  A
C4995      C5002   1.508       .  S
C4996      C4997   1.400       .  A
C4996      H5001   1.085       .  S
C4997      C4998   1.409       .  A
C4998      C4999   1.507       .  S
C4999      H5003   1.111       .  S
C4999      H5004   1.109       .  S
C4999      H5005   1.111       .  S
C5002      H5006   1.109       .  S
C5002      H5007   1.111       .  S
C5002      H5008   1.111       .  S
C5009      C5010   1.402       .  A
C5009      C5014   1.407       .  A
C5009      H5016   1.084       .  S
C5010      C5011   1.413       .  A
C5011      C5012   1.400       .  A
C5011      C5018   1.508       .  S
C5012      C5013   1.401       .  A
C5012      H5017   1.085       .  S
C5013      C5014   1.415       .  A
C5014      C5015   1.505       .  S
C5015      H5019   1.111       .  S
C5015      H5020   1.108       .  S
C5015      H5021   1.110       .  S
C5018      H5022   1.107       .  S
C5018      H5023   1.111       .  S
C5018      H5024   1.111       .  S
C5025      C5026   1.402       .  A
C5025      C5030   1.404       .  A
C5025      H5032   1.082       .  S
C5026      C5027   1.412       .  A
C5027      C5028   1.402       .  A
C5027      C5034   1.509       .  S
C5028      C5029   1.403       .  A
C5028      H5033   1.084       .  S
C5029      C5030   1.413       .  A
C5030      C5031   1.507       .  S
C5031      H5035   1.111       .  S
C5031      H5036   1.110       .  S
C5031      H5037   1.110       .  S
C5034      H5038   1.109       .  S
C5034      H5039   1.110       .  S
C5034      H5040   1.111       .  S
