geometry optimzed in LAMMPS
_audit_creation_date              2020-11-30 
_audit_creation_method            'lammps2cif' 
_symmetry_space_group_name_H-M    'P1' 
_symmetry_Int_Tables_number       1 
_symmetry_cell_setting            triclinic 
loop_ 
_symmetry_equiv_pos_as_xyz 
  x,y,z 
_cell_length_a                    34.37142459 
_cell_length_b                    34.78001840253341 
_cell_length_c                    26.93331581285908 
_cell_angle_alpha                 88.57948798675008 
_cell_angle_beta                  89.15092558644452 
_cell_angle_gamma                 119.64239855350702 
loop_ 
_atom_site_label 
_atom_site_type_symbol 
_atom_site_fract_x 
_atom_site_fract_y 
_atom_site_fract_z 
_atom_site_charge 
Fe1        Fe  0.36765814  0.17083210  0.57365257     1.65800
Fe2        Fe  0.46174393  0.20827187  0.64026662     1.73200
Fe3        Fe  0.46738217  0.25339421  0.52333961     1.54400
O4          O  0.43148723  0.21026560  0.46870823    -0.80400
O5          O  0.50259903  0.27462595  0.64215438    -0.78700
O6          O  0.37390228  0.15017118  0.50425514    -0.82900
O7          O  0.35885030  0.22057833  0.54262590    -0.77700
O8          O  0.51202749  0.22899670  0.52142997    -0.79500
O9          O  0.41644687  0.21564790  0.68499232    -0.82200
C10         C  0.38212177  0.26023096  0.52596612     0.98500
C11         C  0.39727926  0.17224121  0.46619608     1.06000
O12         O  0.43225153  0.21084975  0.57912052    -1.11200
O13         O  0.42534283  0.14140596  0.65473885    -0.73700
O14         O  0.36678591  0.11559445  0.60617848    -0.77100
O15         O  0.42453082  0.27967653  0.51984153    -0.77800
C16         C  0.38844997  0.11044627  0.64116700     0.97400
O17         O  0.35359120  0.18730373  0.64185800    -0.75800
O18         O  0.50780190  0.19943105  0.59791965    -0.81000
C19         C  0.02111749  0.30949668  0.61337526     1.00100
C20         C  0.02331692  0.20827719  0.55508703     1.06000
O21         O  0.01181112  0.30574308  0.56783822    -0.76600
C22         C  0.37514708  0.20388166  0.68074216     1.04300
Fe23       Fe  0.32666660  0.18524871  0.92504261     1.65800
Fe24       Fe  0.30559392  0.26666565  0.95719357     1.73200
Fe25       Fe  0.24970760  0.19821585  0.86179152     1.54400
O26         O  0.29730204  0.19887944  0.81099300    -0.80400
O27         O  0.23804555  0.24191066  0.97105458    -0.78700
O28         O  0.35471325  0.20434297  0.85529764    -0.82900
O29         O  0.27925238  0.12550301  0.89862536    -0.77700
O30         O  0.27070580  0.26113837  0.83828979    -0.79500
O31         O  0.30642800  0.23076337  0.02073379    -0.82200
C32         C  0.24098838  0.10877769  0.88019709     0.98500
C33         C  0.33711149  0.20479294  0.81432183     1.06000
O34         O  0.29365456  0.21682264  0.91459912    -1.11200
O35         O  0.37516984  0.29726609  0.95032317    -0.73700
O36         O  0.38250206  0.23749202  0.95273325    -0.77100
O37         O  0.22108167  0.13069815  0.87370615    -0.77800
C38         C  0.39840948  0.27853337  0.95715144     0.97400
O39         O  0.29938758  0.16676056  0.99513132    -0.75800
O40         O  0.30582016  0.30804583  0.89806443    -0.81000
C41         C  0.20145627  0.21705840  0.95010653     1.00100
C42         C  0.29033022  0.29962514  0.85441867     1.06000
O43         O  0.19995545  0.19817154  0.90931282    -0.77200
C44         C  0.30066841  0.19193485  0.02936066     1.04300
Fe45       Fe  0.18520751  0.36807125  0.74463997     1.65800
Fe46       Fe  0.24709661  0.46315969  0.80507251     1.73200
Fe47       Fe  0.20171358  0.46475577  0.69297855     1.54400
O48         O  0.20541859  0.42495787  0.63906403    -0.80400
O49         O  0.21540682  0.49903212  0.81341045    -0.78700
O50         O  0.21591032  0.37294112  0.67629412    -0.82900
O51         O  0.12862980  0.35976608  0.70964839    -0.77700
O52         O  0.26944119  0.50528894  0.68399247    -0.79500
O53         O  0.20023265  0.41662406  0.85501203    -0.82200
C54         C  0.11133073  0.38307992  0.69636869     0.98500
C55         C  0.21335983  0.39300670  0.63734651     1.06000
O56         O  0.21147501  0.43214195  0.74773305    -1.11200
O57         O  0.28413626  0.43163430  0.80821249    -0.73700
O58         O  0.23666081  0.36523589  0.78114551    -0.77100
O59         O  0.13258890  0.42512245  0.69620814    -0.77800
C60         C  0.27165285  0.39116085  0.80408883     0.97400
O61         O  0.15196274  0.35900454  0.81159947    -0.75800
O62         O  0.29752934  0.51245961  0.75986079    -0.81000
C63         C  0.20830852  0.01681484  0.78970024     1.00100
C64         C  0.29089176  0.00727554  0.69440461     1.06000
O65         O  0.19079315  0.00555881  0.74752834    -0.76600
C66         C  0.16464338  0.37941277  0.85177736     1.04300
Fe67       Fe  0.14000707  0.32064133  0.09757273     1.65800
Fe68       Fe  0.03705449  0.30105822  0.13823044     1.73200
Fe69       Fe  0.04921128  0.25774758  0.02922029     1.54400
O70         O  0.08997931  0.31101989  0.98326656    -0.80400
O71         O  0.99135928  0.23368501  0.13759436    -0.78700
O72         O  0.15368664  0.34563230  0.02493236    -0.82900
O73         O  0.14464184  0.26592166  0.07835410    -0.77700
O74         O  0.99991857  0.27504717  0.02215571    -0.79500
O75         O  0.06576549  0.28785365  0.19824882    -0.82200
C76         C  0.13023506  0.24147087  0.04136805     0.98500
C77         C  0.13103423  0.34024925  0.98617271     1.06000
O78         O  0.07546960  0.29331274  0.08848114    -1.11200
O79         O  0.08013602  0.36914872  0.14639617    -0.73700
O80         O  0.14618236  0.37977953  0.11827375    -0.77100
O81         O  0.09501876  0.23502170  0.01990006    -0.77800
C82         C  0.12208668  0.39378462  0.13790511     0.97400
O83         O  0.13220008  0.29879958  0.17100061    -0.75800
O84         O  0.00197219  0.31553362  0.08548020    -0.81000
C85         C  0.48722012  0.20359462  0.11278887     1.00100
C86         C  0.49106244  0.30383158  0.04242508     1.06000
O87         O  0.50643810  0.20664610  0.07078780    -0.76600
C88         C  0.10268146  0.28906486  0.20540520     1.04300
Fe89       Fe  0.17530887  0.31173016  0.42465416     1.65800
Fe90       Fe  0.20813177  0.24165318  0.47540460     1.73200
Fe91       Fe  0.25592641  0.29709836  0.36454110     1.54400
O92         O  0.20777534  0.28721030  0.31478515    -0.80400
O93         O  0.27611149  0.26653155  0.47689852    -0.78700
O94         O  0.15218165  0.29214624  0.35319041    -0.82900
O95         O  0.22484602  0.37199902  0.39598413    -0.77700
O96         O  0.23754990  0.23127116  0.35801399    -0.79500
O97         O  0.21447306  0.28522084  0.52950153    -0.82200
C98         C  0.26137446  0.38794702  0.37106071     0.98500
C99         C  0.17023677  0.28581767  0.31473996     1.06000
O100        O  0.21323377  0.28370475  0.42157527    -1.11200
O101        O  0.13945289  0.21014192  0.48261672    -0.73700
O102        O  0.11789444  0.25687245  0.45421677    -0.77100
O103        O  0.27938111  0.36502747  0.35947540    -0.77800
C104        C  0.10953381  0.22058785  0.47536780     0.97400
O105        O  0.19626329  0.33355085  0.49586560    -0.75800
O106        O  0.20105687  0.19326421  0.42716579    -0.81000
C107        C  0.31099581  0.29095302  0.45031730     1.00100
C108        C  0.21592012  0.19513919  0.38327103     1.06000
O109        O  0.30955829  0.30778780  0.40844057    -0.76600
C110        C  0.20928691  0.31883566  0.53214295     1.04300
Fe111      Fe  0.32423599  0.13828313  0.24961737     1.65800
Fe112      Fe  0.24517275  0.04032221  0.30123255     1.73200
Fe113      Fe  0.29897414  0.04342218  0.19353402     1.54400
O114        O  0.28251083  0.07752472  0.14354069    -0.80400
O115        O  0.25997212  0.98943989  0.29872239    -0.78700
O116        O  0.31590753  0.14557640  0.17374495    -0.82900
O117        O  0.38357536  0.13930544  0.23763783    -0.77700
O118        O  0.23234701  0.99371918  0.19497057    -0.79500
O119        O  0.29209144  0.06759769  0.35487030    -0.82200
C120        C  0.39479080  0.12471828  0.20096422     0.98500
C121        C  0.29568737  0.11856577  0.13949923     1.06000
O122        O  0.28953469  0.07424371  0.24826178    -1.11200
O123        O  0.22608412  0.08790809  0.31375170    -0.73700
O124        O  0.26897598  0.14466521  0.26198685    -0.77100
O125        O  0.36684898  0.09003351  0.17955019    -0.77800
C126        C  0.23787913  0.12602477  0.29457498     0.97400
O127        O  0.33577381  0.13708017  0.32549451    -0.75800
O128        O  0.19448972  0.00953942  0.25092517    -0.81000
C129        C  0.28549764  0.48636141  0.28658588     1.00100
C130        C  0.19021361  0.48993503  0.21908404     1.06000
O131        O  0.29727559  0.50126641  0.24169175    -0.76600
C132        C  0.32330640  0.10702104  0.35987744     1.04300
C133        C  0.21069771  0.15414031  0.36168004    -0.15100
C134        C  0.21878971  0.15287688  0.31290416    -0.30300
H135        H  0.20730335  0.12777956  0.38702670     0.13900
H136        H  0.22293719  0.18003060  0.28834972     0.14500
C137        C  0.29036246  0.44829772  0.30565970    -0.15100
C138        C  0.28122381  0.43488404  0.35418126    -0.30300
H139        H  0.29359125  0.42710539  0.27889480     0.13900
H140        H  0.27658421  0.45590887  0.38000768     0.14500
C141        C  0.14636952  0.44066629  0.15206131    -0.15100
C142        C  0.14848749  0.45239024  0.19982893    -0.30300
H143        H  0.17292099  0.46307846  0.12606190     0.13900
H144        H  0.12334296  0.42953945  0.22682988     0.14500
C145        C  0.45111003  0.15976662  0.13210117    -0.15100
C146        C  0.44108078  0.15269118  0.18123248    -0.30300
H147        H  0.42848257  0.13668530  0.10574930     0.13900
H148        H  0.46436390  0.17668819  0.20649329     0.14500
C149        C  0.14959952  0.27908802  0.26591743    -0.15100
C150        C  0.11288242  0.28187918  0.25679312    -0.30300
H151        H  0.16871904  0.27660907  0.23484287     0.13900
H152        H  0.09290686  0.28371155  0.28732072     0.14500
C153        C  0.13743899  0.35750284  0.89683223    -0.15100
C154        C  0.15448481  0.36832391  0.94211138    -0.30300
H155        H  0.10461369  0.32872240  0.89244487     0.13900
H156        H  0.18830383  0.39558668  0.94625998     0.14500
C157        C  0.21705250  0.33984089  0.58081897    -0.15100
C158        C  0.21641054  0.37761421  0.58751145    -0.30300
H159        H  0.22045334  0.32203078  0.61266349     0.13900
H160        H  0.21312814  0.39541150  0.55557409     0.14500
C161        C  0.28879413  0.13453874  0.09135221    -0.15100
C162        C  0.29834345  0.17633603  0.08130211    -0.30300
H163        H  0.27770008  0.11095773  0.06182584     0.13900
H164        H  0.30818877  0.19998285  0.11064051     0.14500
C165        C  0.15970518  0.21315491  0.97339578    -0.15100
C166        C  0.15889178  0.22395384  0.02135500    -0.30300
H167        H  0.13249584  0.20784967  0.94940938     0.13900
H168        H  0.18658648  0.22885515  0.04438330     0.14500
C169        C  0.44546743  0.30304147  0.97179941    -0.15100
C170        C  0.45498154  0.30987308  0.02024954    -0.30300
H171        H  0.46927963  0.30030241  0.94722903     0.13900
H172        H  0.43084176  0.31118324  0.04567789     0.14500
C173        C  0.22204810  0.06335040  0.86249884    -0.15100
C174        C  0.20662935  0.05310304  0.81601848    -0.30300
H175        H  0.23145016  0.04186156  0.88262480     0.13900
H176        H  0.19879648  0.07522495  0.79474215     0.14500
C177        C  0.29565526  0.37224047  0.83182860    -0.15100
C178        C  0.29059376  0.33313167  0.81938412    -0.30300
H179        H  0.30994828  0.38612622  0.86712023     0.13900
H180        H  0.27683029  0.32096361  0.78325761     0.14500
C181        C  0.32850693  0.03487241  0.65926184    -0.15100
C182        C  0.36730272  0.06889336  0.67237264    -0.30300
H183        H  0.31913836  0.03439092  0.62075512     0.13900
H184        H  0.37763927  0.07060467  0.71056749     0.14500
C185        C  0.05679695  0.35243585  0.63110122    -0.15100
C186        C  0.06497391  0.35847690  0.67990680    -0.30300
H187        H  0.08149889  0.37549781  0.60385147     0.13900
H188        H  0.04089263  0.33421254  0.70674015     0.14500
C189        C  0.34955646  0.20692384  0.72337708    -0.15100
C190        C  0.36488929  0.21123477  0.76943205    -0.30300
H191        H  0.31559332  0.20029035  0.71764785     0.13900
H192        H  0.39832534  0.21624489  0.77496924     0.14500
C193        C  0.05078834  0.18830978  0.53959099    -0.15100
C194        C  0.06334228  0.18825424  0.49203290    -0.30300
H195        H  0.04470654  0.15984948  0.56305948     0.13900
H196        H  0.05602436  0.15570508  0.48031170     0.14500
C197        C  0.35662806  0.28284551  0.51424936    -0.15100
C198        C  0.35412386  0.29609765  0.46758451    -0.30300
H199        H  0.32967238  0.27601247  0.54084581     0.13900
H200        H  0.37992823  0.30189624  0.43987509     0.14500
C201        C  0.34392264  0.11819532  0.40892888    -0.15100
C202        C  0.38270743  0.15536262  0.41612164    -0.30300
H203        H  0.32522410  0.09631487  0.44045524     0.13900
H204        H  0.40172329  0.17666406  0.38434165     0.14500
Fe205      Fe  0.36204123  0.68136135  0.57327105     1.65800
Fe206      Fe  0.45322132  0.70900106  0.64110165     1.73200
Fe207      Fe  0.46375263  0.76121554  0.52829592     1.54400
O208        O  0.43724203  0.71635032  0.47240193    -0.80400
O209        O  0.49986964  0.77476384  0.64447636    -0.78700
O210        O  0.36742285  0.67140002  0.50011040    -0.82900
O211        O  0.35608909  0.73597250  0.55790817    -0.77700
O212        O  0.51221904  0.74323171  0.53411127    -0.79500
O213        O  0.41124506  0.72123713  0.68535870    -0.82200
C214        C  0.37903069  0.77077954  0.53119877     0.98500
C215        C  0.39792144  0.68465665  0.46670517     1.06000
O216        O  0.42644622  0.71731637  0.58071881    -1.11200
O217        O  0.40924789  0.64174377  0.64993767    -0.73700
O218        O  0.36234308  0.62352202  0.58777871    -0.77100
O219        O  0.41853874  0.78323080  0.51504699    -0.77800
C220        C  0.37708928  0.61329970  0.62552885     0.97400
O221        O  0.34698163  0.68601620  0.64578233    -0.75800
O222        O  0.49725893  0.69666205  0.59966548    -0.81000
C223        C  0.00877024  0.81552900  0.62074775     1.00100
C224        C  0.02198817  0.72395720  0.55976856     1.06000
O225        O  0.00483761  0.81019943  0.57427517    -0.76600
C226        C  0.36918203  0.70583537  0.68293033     1.04300
Fe227      Fe  0.31772862  0.68139576  0.91788912     1.65800
Fe228      Fe  0.29201979  0.75279337  0.97036646     1.73200
Fe229      Fe  0.24533379  0.70488761  0.86113327     1.54400
O230        O  0.29317456  0.70682547  0.81017078    -0.80400
O231        O  0.22424528  0.72415947  0.98127921    -0.78700
O232        O  0.35086379  0.71331776  0.85398038    -0.82900
O233        O  0.27119483  0.62786567  0.87985747    -0.77700
O234        O  0.27293524  0.77126041  0.84828299    -0.79500
O235        O  0.29048598  0.70647544  0.02374414    -0.82200
C236        C  0.23124900  0.61311484  0.86666052     0.98500
C237        C  0.33362134  0.71474909  0.81339480     1.06000
O238        O  0.28470295  0.71329764  0.91650613    -1.11200
O239        O  0.36164650  0.78602683  0.96661247    -0.73700
O240        O  0.37115723  0.72821665  0.95591116    -0.77100
O241        O  0.21263100  0.63663378  0.86615937    -0.77800
C242        C  0.38596651  0.76805365  0.96720583     0.97400
O243        O  0.28533291  0.64927708  0.98205437    -0.75800
O244        O  0.29266600  0.80213371  0.92197571    -0.81000
C245        C  0.19128486  0.71018940  0.95281782     1.00100
C246        C  0.28548190  0.80408861  0.87570515     1.06000
O247        O  0.19438394  0.70338916  0.90690832    -0.77200
C248        C  0.28359355  0.66674512  0.02200754     1.04300
Fe249      Fe  0.16836597  0.86115764  0.74035296     1.65800
Fe250      Fe  0.24756457  0.95334387  0.79377535     1.73200
Fe251      Fe  0.18755332  0.96001310  0.69610178     1.54400
O252        O  0.18316418  0.91911886  0.63797626    -0.80400
O253        O  0.22954228  0.99973746  0.80950783    -0.78700
O254        O  0.19440732  0.86560078  0.67029509    -0.82900
O255        O  0.11201382  0.85821889  0.71077360    -0.77700
O256        O  0.25325692  0.99701724  0.67682561    -0.79500
O257        O  0.20054541  0.91164274  0.84941417    -0.82200
C258        C  0.09623710  0.88394346  0.70459652     0.98500
C259        C  0.19177250  0.88760768  0.63332938     1.06000
O260        O  0.20146385  0.92521847  0.74389809    -1.11200
O261        O  0.27453322  0.91193133  0.79105813    -0.73700
O262        O  0.21654637  0.84909568  0.76953514    -0.77100
O263        O  0.11950830  0.92517401  0.70935629    -0.77800
C264        C  0.25508515  0.87052635  0.78708919     0.97400
O265        O  0.14257478  0.85717396  0.81012113    -0.75800
O266        O  0.29571755  0.99535554  0.73837491    -0.81000
C267        C  0.20263151  0.51904829  0.78393635     1.00100
C268        C  0.30167168  0.52255188  0.71358317     1.06000
O269        O  0.19718474  0.51069846  0.73808100    -0.76600
C270        C  0.16098787  0.87760624  0.84906632     1.04300
Fe271      Fe  0.13921048  0.81706269  0.09450197     1.65800
Fe272      Fe  0.03939935  0.80362657  0.13897898     1.73200
Fe273      Fe  0.04518337  0.75616212  0.03045780     1.54400
O274        O  0.08730252  0.80818166  0.98189334    -0.80400
O275        O  0.99267387  0.73682881  0.14300512    -0.78700
O276        O  0.15199214  0.84102968  0.02192781    -0.82900
O277        O  0.13971065  0.76035122  0.07607518    -0.77700
O278        O  0.99800880  0.77561868  0.02511615    -0.79500
O279        O  0.07082653  0.79235899  0.19771179    -0.82200
C280        C  0.12151885  0.73382278  0.04162717     0.98500
C281        C  0.12900965  0.83645875  0.98379825     1.06000
O282        O  0.07458962  0.79256574  0.08797907    -1.11200
O283        O  0.08433621  0.87151301  0.14198777    -0.73700
O284        O  0.14881081  0.87741695  0.11478391    -0.77100
O285        O  0.08680685  0.72934451  0.02101142    -0.77800
C286        C  0.12643479  0.89384381  0.13319225     0.97400
O287        O  0.13327380  0.79613015  0.16729334    -0.75800
O288        O  0.00103690  0.81619013  0.08856203    -0.81000
C289        C  0.48173822  0.70239647  0.11589991     1.00100
C290        C  0.48458856  0.80153590  0.04769092     1.06000
O291        O  0.50028760  0.70505946  0.07356006    -0.76600
C292        C  0.10630004  0.79029701  0.20302448     1.04300
Fe293      Fe  0.17854254  0.81620475  0.41783381     1.65800
Fe294      Fe  0.20919734  0.75038425  0.47812013     1.73200
Fe295      Fe  0.25510682  0.79513620  0.36409999     1.54400
O296        O  0.20522017  0.77528973  0.31411096    -0.80400
O297        O  0.27538614  0.76661483  0.47253852    -0.78700
O298        O  0.16484165  0.80447710  0.34319543    -0.82900
O299        O  0.23339024  0.87672760  0.40150391    -0.77700
O300        O  0.23948272  0.72935934  0.37090650    -0.79500
O301        O  0.22757712  0.80230685  0.52400568    -0.82200
C302        C  0.26361483  0.88838384  0.36784890     0.98500
C303        C  0.17507388  0.78578459  0.30944404     1.06000
O304        O  0.21448403  0.78753168  0.41988467    -1.11200
O305        O  0.14233078  0.73008272  0.49527634    -0.73700
O306        O  0.12083041  0.75781055  0.43345417    -0.77100
O307        O  0.27383843  0.86143982  0.34837557    -0.77800
C308        C  0.11235289  0.73414781  0.47275716     0.97400
O309        O  0.18755465  0.83134950  0.49277142    -0.75800
O310        O  0.19066917  0.69616493  0.43478682    -0.81000
C311        C  0.31046812  0.79578176  0.44921489     1.00100
C312        C  0.21046293  0.69470194  0.39523509     1.06000
O313        O  0.30911554  0.81547172  0.40962817    -0.76600
C314        C  0.21000964  0.82677356  0.52740771     1.04300
Fe315      Fe  0.31951160  0.64285374  0.26208971     1.65800
Fe316      Fe  0.24098725  0.54276221  0.31110943     1.73200
Fe317      Fe  0.29259299  0.55011880  0.19803948     1.54400
O318        O  0.28776498  0.59624611  0.15085762    -0.80400
O319        O  0.26645626  0.50057428  0.31571402    -0.78700
O320        O  0.29695931  0.65318840  0.19636289    -0.82900
O321        O  0.37609497  0.65039957  0.22754525    -0.77700
O322        O  0.22482359  0.50825603  0.19061240    -0.79500
O323        O  0.28523533  0.57986779  0.36542766    -0.82200
C324        C  0.38859696  0.62783179  0.20313230     0.98500
C325        C  0.28878732  0.63327516  0.15586386     1.06000
O326        O  0.28420574  0.57830057  0.25679768    -1.11200
O327        O  0.21069011  0.58155260  0.31356129    -0.73700
O328        O  0.26952782  0.64819725  0.29756679    -0.77100
O329        O  0.36230354  0.58779186  0.19327774    -0.77800
C330        C  0.22942511  0.62342568  0.31227890     0.97400
O331        O  0.34485680  0.63691616  0.32775838    -0.75800
O332        O  0.19104872  0.49991163  0.26433342    -0.81000
C333        C  0.29081369  0.98368822  0.27967243     1.00100
C334        C  0.19566328  0.98827044  0.21375303     1.06000
O335        O  0.31491587  0.00653901  0.24220282    -0.76600
C336        C  0.32461862  0.61305144  0.36600805     1.04300
C337        C  0.20209212  0.65147507  0.37769856    -0.15100
C338        C  0.20583703  0.64633790  0.32894946    -0.30300
H339        H  0.20196191  0.62774967  0.40482675     0.13900
H340        H  0.20721302  0.67146360  0.30297086     0.14500
C341        C  0.29596235  0.94698899  0.30123230    -0.15100
C342        C  0.28396633  0.93463307  0.34928612    -0.30300
H343        H  0.30177095  0.92608311  0.27640017     0.13900
H344        H  0.27845989  0.95659199  0.37282133     0.14500
C345        C  0.15307962  0.94053693  0.14643534    -0.15100
C346        C  0.15332701  0.95335310  0.19326759    -0.30300
H347        H  0.18213825  0.96088494  0.12220182     0.13900
H348        H  0.12534761  0.93336468  0.21890112     0.14500
C349        C  0.44526944  0.65884579  0.13532222    -0.15100
C350        C  0.43540093  0.65185497  0.18443400    -0.30300
H351        H  0.42177720  0.63643231  0.10909171     0.13900
H352        H  0.45919247  0.67558488  0.20952331     0.14500
C353        C  0.15364314  0.77848611  0.26126569    -0.15100
C354        C  0.11832107  0.78413921  0.25356589    -0.30300
H355        H  0.16996216  0.77208847  0.23021827     0.13900
H356        H  0.10094136  0.78901781  0.28470163     0.14500
C357        C  0.13455602  0.85845558  0.89551991    -0.15100
C358        C  0.15342344  0.86464023  0.93973965    -0.30300
H359        H  0.09941427  0.83388587  0.89234734     0.13900
H360        H  0.18899155  0.88782298  0.94267874     0.14500
C361        C  0.21355407  0.84794274  0.57500827    -0.15100
C362        C  0.19652343  0.87475263  0.58287444    -0.30300
H363        H  0.22768329  0.83846617  0.60564385     0.13900
H364        H  0.18363622  0.88556290  0.55218886     0.14500
C365        C  0.28301133  0.65640947  0.11260125    -0.15100
C366        C  0.27639524  0.63967296  0.06751402    -0.30300
H367        H  0.28903519  0.68988426  0.11709014     0.13900
H368        H  0.27086085  0.60634499  0.06317394     0.14500
C369        C  0.14907977  0.70601614  0.97381714    -0.15100
C370        C  0.14504935  0.71105040  0.02291704    -0.30300
H371        H  0.12603360  0.70806588  0.94813906     0.13900
H372        H  0.16895072  0.70973187  0.04790310     0.14500
C373        C  0.43347712  0.79245723  0.98039143    -0.15100
C374        C  0.44631253  0.80483941  0.02712028    -0.30300
H375        H  0.45590173  0.78756175  0.95581692     0.13900
H376        H  0.42383756  0.80845302  0.05293473     0.14500
C377        C  0.20727323  0.56690744  0.85168618    -0.15100
C378        C  0.19882016  0.55661913  0.80358350    -0.30300
H379        H  0.20936729  0.54345419  0.87736919     0.13900
H380        H  0.19880299  0.58070745  0.77711509     0.14500
C381        C  0.27598769  0.84468796  0.80468633    -0.15100
C382        C  0.28752269  0.84449962  0.85262315    -0.30300
H383        H  0.27075506  0.81745282  0.78159580     0.13900
H384        H  0.29037511  0.87027616  0.87677945     0.14500
C385        C  0.34493395  0.55844267  0.69363828    -0.15100
C386        C  0.35164683  0.56737422  0.64441290    -0.30300
H387        H  0.36725870  0.58236610  0.71955968     0.13900
H388        H  0.32866123  0.54340616  0.61894576     0.14500
C389        C  0.04330457  0.85837866  0.63917110    -0.15100
C390        C  0.05015084  0.86397427  0.68820094    -0.30300
H391        H  0.06960088  0.88059494  0.61275210     0.13900
H392        H  0.02466950  0.84074220  0.71465042     0.14500
C393        C  0.34348602  0.70897259  0.72488242    -0.15100
C394        C  0.36169061  0.72309822  0.76869641    -0.30300
H395        H  0.30757312  0.69499686  0.72099166     0.13900
H396        H  0.39724331  0.73524058  0.77324683     0.14500
C397        C  0.06025201  0.71875530  0.54316639    -0.15100
C398        C  0.06695739  0.71510726  0.49448680    -0.30300
H399        H  0.08650914  0.72553098  0.56927695     0.13900
H400        H  0.04075092  0.70943881  0.46870424     0.14500
C401        C  0.35602902  0.79482892  0.51626487    -0.15100
C402        C  0.35379803  0.80395988  0.46803122    -0.30300
H403        H  0.32949227  0.79124793  0.54177959     0.13900
H404        H  0.37932317  0.80716232  0.44130866     0.14500
C405        C  0.34603294  0.62626583  0.41397559    -0.15100
C406        C  0.38564034  0.66352691  0.41858877    -0.30300
H407        H  0.32592731  0.60818798  0.44686358     0.13900
H408        H  0.40655414  0.68130357  0.38607985     0.14500
Fe409      Fe  0.86891148  0.17207228  0.57401348     1.65800
Fe410      Fe  0.96240734  0.20985630  0.64198843     1.73200
Fe411      Fe  0.96885494  0.25401625  0.52418890     1.54400
O412        O  0.93253603  0.21124723  0.46943482    -0.80400
O413        O  0.00348772  0.27689291  0.64394976    -0.78700
O414        O  0.87576886  0.15084299  0.50524310    -0.82900
O415        O  0.86055963  0.22170233  0.54196893    -0.77700
O416        O  0.01235573  0.22839638  0.52271850    -0.79500
O417        O  0.91617033  0.21637713  0.68620491    -0.82200
C418        C  0.88402821  0.26149311  0.52585183     0.98500
C419        C  0.89868417  0.17300693  0.46703987     1.06000
O420        O  0.93340396  0.21207947  0.58023129    -1.11200
O421        O  0.92594863  0.14252690  0.65606370    -0.73700
O422        O  0.86760815  0.11706703  0.60718366    -0.77100
O423        O  0.92657956  0.28109132  0.52071156    -0.77800
C424        C  0.88899663  0.11163398  0.64221480     0.97400
O425        O  0.85405122  0.18863399  0.64176368    -0.75800
O426        O  0.00909176  0.20132939  0.60039651    -0.81000
C427        C  0.51856285  0.30804167  0.61297706     1.00100
C428        C  0.52267177  0.20788997  0.55284578     1.06000
O429        O  0.50906572  0.30536483  0.56753280    -0.76600
C430        C  0.87487187  0.20444117  0.68127235     1.04300
Fe431      Fe  0.82162417  0.18033329  0.92569826     1.65800
Fe432      Fe  0.80244490  0.26331582  0.95512969     1.73200
Fe433      Fe  0.74537374  0.19345489  0.86122098     1.54400
O434        O  0.79353348  0.19445939  0.81081736    -0.80400
O435        O  0.73511474  0.23928498  0.96884185    -0.78700
O436        O  0.85024896  0.19913096  0.85608941    -0.82900
O437        O  0.77438352  0.12061785  0.89906266    -0.77700
O438        O  0.76538912  0.25599580  0.83722831    -0.79500
O439        O  0.80312952  0.22784731  0.01968652    -0.82200
C440        C  0.73634450  0.10392302  0.88014637     0.98500
C441        C  0.83329154  0.20023400  0.81480586     1.06000
O442        O  0.78946435  0.21250966  0.91386849    -1.11200
O443        O  0.87206156  0.29292572  0.94816274    -0.73700
O444        O  0.87743278  0.23216518  0.95426200    -0.77100
O445        O  0.71663430  0.12592702  0.87313451    -0.77800
C446        C  0.89428939  0.27345588  0.95737055     0.97400
O447        O  0.79351309  0.16247264  0.99557233    -0.75800
O448        O  0.80264910  0.30435103  0.89492647    -0.81000
C449        C  0.69815610  0.21362972  0.94900487     1.00100
C450        C  0.78549728  0.29491691  0.85203048     1.06000
O451        O  0.69587544  0.19349661  0.90895735    -0.77200
C452        C  0.79647427  0.18873914  0.02932058     1.04300
Fe453      Fe  0.68053567  0.36589316  0.74314677     1.65800
Fe454      Fe  0.75025408  0.46353079  0.79468727     1.73200
Fe455      Fe  0.69144511  0.45941526  0.69117519     1.54400
O456        O  0.69113309  0.41708176  0.63761711    -0.80400
O457        O  0.72319313  0.50363909  0.80555124    -0.78700
O458        O  0.70868710  0.36934137  0.67389092    -0.82900
O459        O  0.62264861  0.35621657  0.70983667    -0.77700
O460        O  0.75702044  0.49919342  0.67314831    -0.79500
O461        O  0.70510312  0.42024478  0.85008286    -0.82200
C462        C  0.60375363  0.37879708  0.70024883     0.98500
C463        C  0.70244767  0.38737895  0.63532356     1.06000
O464        O  0.70769286  0.42996857  0.74341384    -1.11200
O465        O  0.78482182  0.42916481  0.79614098    -0.73700
O466        O  0.73191786  0.36196319  0.77832372    -0.77100
O467        O  0.62361783  0.42037363  0.70337308    -0.77800
C468        C  0.76928434  0.38785345  0.79700316     0.97400
O469        O  0.65152993  0.36172535  0.81117055    -0.75800
O470        O  0.79758208  0.50772436  0.74065479    -0.81000
C471        C  0.70558084  0.01254666  0.78965176     1.00100
C472        C  0.79057407  0.00712666  0.69487677     1.06000
O473        O  0.68673408  0.99948282  0.74844945    -0.76600
C474        C  0.66764171  0.38388467  0.84978148     1.04300
Fe475      Fe  0.64355268  0.32422528  0.09549395     1.65800
Fe476      Fe  0.54068339  0.30442674  0.13723274     1.73200
Fe477      Fe  0.55212372  0.26158168  0.02717032     1.54400
O478        O  0.59561523  0.31410734  0.98098851    -0.80400
O479        O  0.49590714  0.23705333  0.13854987    -0.78700
O480        O  0.65766600  0.35216646  0.02440368    -0.82900
O481        O  0.64935794  0.27124074  0.07227453    -0.77700
O482        O  0.50581732  0.28248398  0.01866908    -0.79500
O483        O  0.57143719  0.29313071  0.19643645    -0.82200
C484        C  0.63130798  0.24298503  0.03922481     0.98500
C485        C  0.63585900  0.34527474  0.98482540     1.06000
O486        O  0.57877262  0.29680632  0.08660907    -1.11200
O487        O  0.58258980  0.37260945  0.14346208    -0.73700
O488        O  0.64925842  0.38210914  0.11988345    -0.77100
O489        O  0.59458571  0.23491137  0.02033445    -0.77800
C490        C  0.62482973  0.39656179  0.13744570     0.97400
O491        O  0.63545558  0.29928546  0.16741401    -0.75800
O492        O  0.50342536  0.31698938  0.08585351    -0.81000
C493        C  0.98498952  0.19983419  0.11372669     1.00100
C494        C  0.98711526  0.29899094  0.04380216     1.06000
O495        O  0.00638273  0.20241274  0.07350743    -0.76600
C496        C  0.60717120  0.29173910  0.20251921     1.04300
Fe497      Fe  0.67629703  0.31144296  0.42117812     1.65800
Fe498      Fe  0.70880805  0.24213106  0.47464996     1.73200
Fe499      Fe  0.75743334  0.29627232  0.36340788     1.54400
O500        O  0.71010481  0.28545813  0.31227913    -0.80400
O501        O  0.77682034  0.26541975  0.47558235    -0.78700
O502        O  0.65596833  0.29382438  0.34880895    -0.82900
O503        O  0.72729742  0.37204299  0.39547969    -0.77700
O504        O  0.73910840  0.23039727  0.35893347    -0.79500
O505        O  0.71686322  0.28701440  0.52744121    -0.82200
C506        C  0.76336297  0.38745370  0.36973902     0.98500
C507        C  0.67356794  0.28596802  0.31117052     1.06000
O508        O  0.71426318  0.28351202  0.41979900    -1.11200
O509        O  0.64004927  0.21226442  0.48346217    -0.73700
O510        O  0.61799024  0.25598666  0.44728510    -0.77100
O511        O  0.78044284  0.36400864  0.35690662    -0.77800
C512        C  0.60980296  0.22141471  0.47231361     0.97400
O513        O  0.69364086  0.33134874  0.49350435    -0.75800
O514        O  0.69978139  0.19275143  0.42710310    -0.81000
C515        C  0.81192173  0.29047330  0.44954439     1.00100
C516        C  0.71575476  0.19434689  0.38386774     1.06000
O517        O  0.81071444  0.30804441  0.40814666    -0.76600
C518        C  0.70841946  0.31856537  0.52982884     1.04300
Fe519      Fe  0.82373448  0.13713709  0.25090549     1.65800
Fe520      Fe  0.74490959  0.03979127  0.30439454     1.73200
Fe521      Fe  0.79671562  0.04166052  0.19549331     1.54400
O522        O  0.78011477  0.07587063  0.14560441    -0.80400
O523        O  0.75988087  0.98910136  0.30244485    -0.78700
O524        O  0.81483876  0.14421922  0.17485661    -0.82900
O525        O  0.88245641  0.13711890  0.23867977    -0.77700
O526        O  0.72988530  0.99242157  0.19793651    -0.79500
O527        O  0.79248982  0.06778093  0.35717621    -0.82200
C528        C  0.89308593  0.12204162  0.20204505     0.98500
C529        C  0.79385152  0.11701734  0.14100058     1.06000
O530        O  0.78841833  0.07305370  0.25037259    -1.11200
O531        O  0.72592524  0.08741018  0.31592871    -0.73700
O532        O  0.76888265  0.14398453  0.26380633    -0.77100
O533        O  0.86460953  0.08760666  0.18067724    -0.77800
C534        C  0.73761144  0.12530698  0.29622053     0.97400
O535        O  0.83621927  0.13678780  0.32665890    -0.75800
O536        O  0.69323404  0.00808145  0.25558734    -0.81000
C537        C  0.78754086  0.48469003  0.28487080     1.00100
C538        C  0.69140664  0.48983284  0.22080815     1.06000
O539        O  0.80773382  0.50628517  0.24463930    -0.76600
C540        C  0.82396342  0.10715391  0.36147489     1.04300
C541        C  0.70971159  0.15306272  0.36257642    -0.15100
C542        C  0.71817093  0.15190880  0.31392633    -0.30300
H543        H  0.70581753  0.12656964  0.38803229     0.13900
H544        H  0.72262485  0.17913850  0.28928901     0.14500
C545        C  0.79390410  0.44783608  0.30454388    -0.15100
C546        C  0.78341776  0.43431649  0.35284980    -0.30300
H547        H  0.79929940  0.42756198  0.27834336     0.13900
H548        H  0.77746579  0.45512131  0.37778325     0.14500
C549        C  0.64900838  0.44305330  0.15228696    -0.15100
C550        C  0.64957538  0.45403437  0.20006341    -0.30300
H551        H  0.67694856  0.46536453  0.12767990     0.13900
H552        H  0.62278357  0.43184259  0.22592380     0.14500
C553        C  0.94918918  0.15602625  0.13312501    -0.15100
C554        C  0.93936478  0.14931527  0.18222833    -0.30300
H555        H  0.92646060  0.13287060  0.10689820     0.13900
H556        H  0.96287483  0.17345222  0.20722557     0.14500
C557        C  0.65340852  0.27983102  0.26223689    -0.15100
C558        C  0.61744937  0.28402439  0.25348215    -0.30300
H559        H  0.67208484  0.27668247  0.23115991     0.13900
H560        H  0.59813166  0.28662365  0.28421631     0.14500
C561        C  0.64140544  0.36428313  0.89605121    -0.15100
C562        C  0.65957892  0.37377428  0.94081589    -0.30300
H563        H  0.60747123  0.33701359  0.89257896     0.13900
H564        H  0.69410733  0.39979082  0.94429766     0.14500
C565        C  0.71434711  0.33941137  0.57824340    -0.15100
C566        C  0.70555147  0.37236389  0.58547994    -0.30300
H567        H  0.72305581  0.32508585  0.60951132     0.13900
H568        H  0.69693080  0.38670777  0.55415240     0.14500
C569        C  0.78653704  0.13261243  0.09260624    -0.15100
C570        C  0.79540389  0.17415123  0.08168217    -0.30300
H571        H  0.77516474  0.10858369  0.06354857     0.13900
H572        H  0.80560746  0.19831378  0.11048290     0.14500
C573        C  0.65696712  0.21038521  0.97275653    -0.15100
C574        C  0.65751187  0.22256848  0.02030506    -0.30300
H575        H  0.62961123  0.20531784  0.94913852     0.13900
H576        H  0.68545499  0.22737811  0.04284773     0.14500
C577        C  0.94127500  0.29728463  0.97277197    -0.15100
C578        C  0.95068355  0.30438837  0.02128934    -0.30300
H579        H  0.96510522  0.29422850  0.94856453     0.13900
H580        H  0.92666914  0.30617813  0.04646130     0.14500
C581        C  0.71752937  0.05845616  0.86255352    -0.15100
C582        C  0.70238267  0.04805145  0.81598373    -0.30300
H583        H  0.72718853  0.03719412  0.88274461     0.13900
H584        H  0.69399050  0.06971592  0.79462484     0.14500
C585        C  0.79276663  0.36841297  0.82533572    -0.15100
C586        C  0.78392401  0.32724837  0.81626487    -0.30300
H587        H  0.81070757  0.38466780  0.85819623     0.13900
H588        H  0.76685502  0.31309689  0.78209722     0.14500
C589        C  0.82758065  0.03654876  0.65979922    -0.15100
C590        C  0.86724076  0.06961680  0.67280478    -0.30300
H591        H  0.81746287  0.03730143  0.62184873     0.13900
H592        H  0.87833316  0.07012693  0.71047015     0.14500
C593        C  0.55218972  0.35068590  0.63282636    -0.15100
C594        C  0.55820745  0.35469770  0.68219141    -0.30300
H595        H  0.57749329  0.37510122  0.60705069     0.13900
H596        H  0.53350641  0.32929141  0.70760277     0.14500
C597        C  0.84830512  0.20613425  0.72382531    -0.15100
C598        C  0.86195462  0.20756917  0.77036197    -0.30300
H599        H  0.81485291  0.20068424  0.71734084     0.13900
H600        H  0.89485602  0.21138513  0.77648641     0.14500
C601        C  0.55092579  0.18895265  0.53645319    -0.15100
C602        C  0.56332169  0.18956751  0.48863565    -0.30300
H603        H  0.54572551  0.16056433  0.55948186     0.13900
H604        H  0.55565515  0.15715347  0.47608603     0.14500
C605        C  0.85846390  0.28397150  0.51369275    -0.15100
C606        C  0.85517385  0.29582773  0.46668963    -0.30300
H607        H  0.83177063  0.27771658  0.54041060     0.13900
H608        H  0.88066120  0.30102261  0.43882745     0.14500
C609        C  0.84506801  0.11871729  0.41025325    -0.15100
C610        C  0.88390775  0.15593740  0.41706139    -0.30300
H611        H  0.82659905  0.09703137  0.44199912     0.13900
H612        H  0.90268431  0.17713149  0.38511903     0.14500
Fe613      Fe  0.86304498  0.67897353  0.58065127     1.65800
Fe614      Fe  0.95738119  0.71726143  0.64651436     1.73200
Fe615      Fe  0.96023865  0.75939956  0.53035042     1.54400
O616        O  0.92124703  0.71501014  0.47757451    -0.80400
O617        O  0.98705028  0.78420577  0.65218015    -0.78700
O618        O  0.87202364  0.65227734  0.51745694    -0.82900
O619        O  0.85391168  0.72461064  0.53968484    -0.77700
O620        O  0.00197376  0.73350529  0.52656939    -0.79500
O621        O  0.90562488  0.71286370  0.69131790    -0.82200
C622        C  0.87704933  0.76578432  0.52924117     0.98500
C623        C  0.89140923  0.67435499  0.47781676     1.06000
O624        O  0.92706326  0.71836911  0.58605799    -1.11200
O625        O  0.93007064  0.64966404  0.65155250    -0.73700
O626        O  0.86236563  0.62852699  0.62308748    -0.77100
O627        O  0.91940997  0.78715146  0.53060301    -0.77800
C628        C  0.88931663  0.62100985  0.64767997     0.97400
O629        O  0.84951088  0.70311798  0.64264024    -0.75800
O630        O  0.01218449  0.72144005  0.60612077    -0.81000
C631        C  0.50953540  0.81052489  0.62097840     1.00100
C632        C  0.51883670  0.71568579  0.55932209     1.06000
O633        O  0.49494071  0.81134518  0.57821749    -0.76600
C634        C  0.86785390  0.71046836  0.68429786     1.04300
Fe635      Fe  0.81230417  0.67530616  0.92190506     1.65800
Fe636      Fe  0.79024080  0.74987739  0.97296040     1.73200
Fe637      Fe  0.74223641  0.70198161  0.86344660     1.54400
O638        O  0.79036077  0.70481605  0.81281599    -0.80400
O639        O  0.72250795  0.72369554  0.98298974    -0.78700
O640        O  0.84514106  0.70468633  0.85696570    -0.82900
O641        O  0.76481815  0.62185985  0.88550883    -0.77700
O642        O  0.76980327  0.76880727  0.85171078    -0.79500
O643        O  0.78712354  0.70345634  0.02731188    -0.82200
C644        C  0.72648488  0.60863073  0.86826177     0.98500
C645        C  0.82948701  0.70937513  0.81650818     1.06000
O646        O  0.78124764  0.70926522  0.91933441    -1.11200
O647        O  0.85984437  0.78095379  0.96982288    -0.73700
O648        O  0.86709995  0.72194222  0.95827365    -0.77100
O649        O  0.70906205  0.63324375  0.86517500    -0.77800
C650        C  0.88315712  0.76190059  0.96973503     0.97400
O651        O  0.77991552  0.64493006  0.98691219    -0.75800
O652        O  0.79355158  0.80026170  0.92440553    -0.81000
C653        C  0.68908804  0.70870185  0.95500131     1.00100
C654        C  0.78536196  0.80228409  0.87854063     1.06000
O655        O  0.69131959  0.69992700  0.90960348    -0.77200
C656        C  0.77941841  0.66344045  0.02649260     1.04300
Fe657      Fe  0.67308221  0.85825423  0.74105485     1.65800
Fe658      Fe  0.74924487  0.95265449  0.79414302     1.73200
Fe659      Fe  0.68666172  0.95549446  0.69683362     1.54400
O660        O  0.68452776  0.91602148  0.63844106    -0.80400
O661        O  0.72944652  0.99801736  0.80843929    -0.78700
O662        O  0.69736872  0.86332354  0.67000615    -0.82900
O663        O  0.61451422  0.85185491  0.71446690    -0.77700
O664        O  0.75234312  0.99573574  0.67802545    -0.79500
O665        O  0.70307818  0.91144756  0.85012761    -0.82200
C666        C  0.59685414  0.87576473  0.70706981     0.98500
C667        C  0.69352395  0.88486188  0.63337104     1.06000
O668        O  0.70325045  0.92241953  0.74441551    -1.11200
O669        O  0.77810410  0.91252534  0.79421048    -0.73700
O670        O  0.72391314  0.84936733  0.76766161    -0.77100
O671        O  0.61859160  0.91739490  0.70930062    -0.77800
C672        C  0.76109604  0.87152831  0.78783863     0.97400
O673        O  0.64859844  0.85304360  0.81167856    -0.75800
O674        O  0.79643735  0.99477508  0.73815476    -0.81000
C675        C  0.70274792  0.51883503  0.78036919     1.00100
C676        C  0.79400268  0.51522583  0.69457786     1.06000
O677        O  0.68999928  0.50653633  0.73672563    -0.76600
C678        C  0.66517681  0.87543231  0.85002884     1.04300
Fe679      Fe  0.63822713  0.81942920  0.09577605     1.65800
Fe680      Fe  0.53720298  0.80318978  0.13996847     1.73200
Fe681      Fe  0.54539230  0.75962540  0.02926879     1.54400
O682        O  0.58868892  0.81213672  0.98256675    -0.80400
O683        O  0.49125530  0.73603466  0.14178392    -0.78700
O684        O  0.65245867  0.84524611  0.02403984    -0.82900
O685        O  0.63959093  0.76353252  0.07576524    -0.77700
O686        O  0.49921144  0.78041908  0.02340985    -0.79500
O687        O  0.56832255  0.79124264  0.19844378    -0.82200
C688        C  0.62111086  0.73652421  0.04178316     0.98500
C689        C  0.63019417  0.84049667  0.98531814     1.06000
O690        O  0.57356749  0.79433860  0.08832286    -1.11200
O691        O  0.58127974  0.87115211  0.14496619    -0.73700
O692        O  0.64654499  0.87884322  0.11774142    -0.77100
O693        O  0.58654598  0.73212084  0.02079422    -0.77800
C694        C  0.62340789  0.89425046  0.13659947     0.97400
O695        O  0.63148933  0.79688139  0.16779087    -0.75800
O696        O  0.49888363  0.81623924  0.09017241    -0.81000
C697        C  0.98320439  0.70199034  0.11950152     1.00100
C698        C  0.98468040  0.79858543  0.04774749     1.06000
O699        O  0.00162252  0.70274197  0.07758449    -0.76600
C700        C  0.60415142  0.78984780  0.20348741     1.04300
Fe701      Fe  0.67693815  0.81460651  0.41753288     1.65800
Fe702      Fe  0.70579444  0.74622028  0.47536760     1.73200
Fe703      Fe  0.75386393  0.79425996  0.36328068     1.54400
O704        O  0.70479293  0.77620185  0.31258516    -0.80400
O705        O  0.77185721  0.76173852  0.47023726    -0.78700
O706        O  0.66351831  0.80406359  0.34280907    -0.82900
O707        O  0.73208528  0.87526550  0.40244787    -0.77700
O708        O  0.73786706  0.72845099  0.36796267    -0.79500
O709        O  0.72424761  0.79698435  0.52293991    -0.82200
C710        C  0.76298468  0.88747173  0.36953770     0.98500
C711        C  0.67423014  0.78619375  0.30854796     1.06000
O712        O  0.71234388  0.78532085  0.41859100    -1.11200
O713        O  0.63879232  0.72592498  0.49216470    -0.73700
O714        O  0.61863553  0.75642711  0.43200795    -0.77100
O715        O  0.77339988  0.86085827  0.34968092    -0.77800
C716        C  0.60932908  0.73119561  0.47011643     0.97400
O717        O  0.68605592  0.82843240  0.49260577    -0.75800
O718        O  0.68738143  0.69330001  0.42989774    -0.81000
C719        C  0.80745584  0.79146068  0.44823030     1.00100
C720        C  0.70826286  0.69308309  0.39064244     1.06000
O721        O  0.80698435  0.81282689  0.40969152    -0.76600
C722        C  0.70808403  0.82262500  0.52681816     1.04300
Fe723      Fe  0.82317101  0.63966973  0.26695727     1.65800
Fe724      Fe  0.74057616  0.53930335  0.31218174     1.73200
Fe725      Fe  0.79448370  0.54899763  0.20061637     1.54400
O726        O  0.78065288  0.58969930  0.15537071    -0.80400
O727        O  0.75961862  0.49173848  0.30893985    -0.78700
O728        O  0.81647284  0.65376531  0.19397861    -0.82900
O729        O  0.88162884  0.63955733  0.25126140    -0.77700
O730        O  0.72809473  0.50073328  0.19790378    -0.79500
O731        O  0.78476332  0.56645495  0.36935133    -0.82200
C732        C  0.89162526  0.62696149  0.21195610     0.98500
C733        C  0.79589044  0.63136837  0.15712357     1.06000
O734        O  0.78582786  0.57593192  0.26011933    -1.11200
O735        O  0.71785977  0.58414039  0.32264650    -0.73700
O736        O  0.76909270  0.64691315  0.28381582    -0.77100
O737        O  0.86266674  0.59419687  0.18883222    -0.77800
C738        C  0.73273289  0.62427849  0.30849884     0.97400
O739        O  0.83444715  0.63399635  0.34033894    -0.75800
O740        O  0.68995223  0.50623874  0.26193079    -0.81000
C741        C  0.79003692  0.98287148  0.28239218     1.00100
C742        C  0.69362214  0.98692463  0.21798833     1.06000
O743        O  0.81293688  0.00482296  0.24388969    -0.76600
C744        C  0.81852428  0.60435727  0.37477861     1.04300
C745        C  0.70078791  0.65059220  0.37162445    -0.15100
C746        C  0.70987731  0.64843120  0.32343534    -0.30300
H747        H  0.69694604  0.62490769  0.39831193     0.13900
H748        H  0.71435826  0.67520525  0.29798689     0.14500
C749        C  0.79570540  0.94650306  0.30388173    -0.15100
C750        C  0.78386270  0.93396943  0.35192164    -0.30300
H751        H  0.80140501  0.92564645  0.27885489     0.13900
H752        H  0.77835005  0.95574380  0.37576120     0.14500
C753        C  0.64919354  0.94074711  0.15067264    -0.15100
C754        C  0.65081747  0.95219305  0.19829046    -0.30300
H755        H  0.67730798  0.96215808  0.12574989     0.13900
H756        H  0.62389999  0.93112779  0.22462454     0.14500
C757        C  0.94715629  0.65935619  0.14156793    -0.15100
C758        C  0.93743012  0.65525646  0.19083359    -0.30300
H759        H  0.92460972  0.63444383  0.11669845     0.13900
H760        H  0.96082465  0.68070243  0.21472071     0.14500
C761        C  0.65269837  0.77912854  0.26057177    -0.15100
C762        C  0.61632444  0.78316752  0.25368293    -0.30300
H763        H  0.66964233  0.77410992  0.22908093     0.13900
H764        H  0.59833606  0.78661083  0.28523136     0.14500
C765        C  0.63825485  0.85664485  0.89604323    -0.15100
C766        C  0.65499195  0.86794757  0.94114854    -0.30300
H767        H  0.60460866  0.82887677  0.89242220     0.13900
H768        H  0.68936799  0.89417594  0.94505460     0.14500
C769        C  0.71298414  0.84401135  0.57443137    -0.15100
C770        C  0.69726553  0.87180549  0.58277731    -0.30300
H771        H  0.72700576  0.83394709  0.60465737     0.13900
H772        H  0.68435754  0.88302817  0.55248625     0.14500
C773        C  0.79160361  0.65638316  0.11467294    -0.15100
C774        C  0.77253209  0.63720918  0.07267197    -0.30300
H775        H  0.80811253  0.69221917  0.11657048     0.13900
H776        H  0.75770695  0.60157310  0.07001400     0.14500
C777        C  0.64733143  0.70576146  0.97568673    -0.15100
C778        C  0.64410877  0.71284392  0.02430352    -0.30300
H779        H  0.62407026  0.70704397  0.94972442     0.13900
H780        H  0.66817176  0.71214312  0.04953107     0.14500
C781        C  0.93097846  0.78510070  0.98199551    -0.15100
C782        C  0.94575729  0.80086923  0.02728508    -0.30300
H783        H  0.95200605  0.77762278  0.95819063     0.13900
H784        H  0.92477709  0.80722033  0.05248493     0.14500
C785        C  0.70364403  0.56304338  0.85074905    -0.15100
C786        C  0.69723595  0.55486968  0.80197016    -0.30300
H787        H  0.70577084  0.53874929  0.87502094     0.13900
H788        H  0.69646745  0.57928197  0.77665209     0.14500
C789        C  0.78267639  0.84650082  0.80646935    -0.15100
C790        C  0.79001149  0.84393060  0.85549398    -0.30300
H791        H  0.77987327  0.82042933  0.78283315     0.13900
H792        H  0.79098115  0.86869505  0.88004153     0.14500
C793        C  0.83244976  0.54494629  0.66184599    -0.15100
C794        C  0.87028935  0.57894462  0.67716419    -0.30300
H795        H  0.82462184  0.54542459  0.62285357     0.13900
H796        H  0.88017302  0.57987006  0.71542563     0.14500
C797        C  0.54180321  0.85236270  0.64343589    -0.15100
C798        C  0.55026888  0.85285471  0.69210815    -0.30300
H799        H  0.56498544  0.87944466  0.61854777     0.13900
H800        H  0.52735630  0.82480544  0.71606542     0.14500
C801        C  0.84254680  0.71372287  0.72657690    -0.15100
C802        C  0.85809333  0.71805646  0.77235195    -0.30300
H803        H  0.80884819  0.70787959  0.72068115     0.13900
H804        H  0.89155983  0.72315347  0.77806413     0.14500
C805        C  0.55464220  0.70766029  0.54034687    -0.15100
C806        C  0.56347121  0.71169320  0.49098202    -0.30300
H807        H  0.57819941  0.70708907  0.56638354     0.13900
H808        H  0.53901444  0.71228414  0.46623293     0.14500
C809        C  0.85194756  0.78778894  0.51508353    -0.15100
C810        C  0.85033851  0.79852388  0.46730055    -0.30300
H811        H  0.82420884  0.78142535  0.54027676     0.13900
H812        H  0.87692182  0.80392647  0.44088118     0.14500
C813        C  0.83900409  0.61571030  0.42381511    -0.15100
C814        C  0.87713108  0.65414528  0.42945639    -0.30300
H815        H  0.82037929  0.59482923  0.45598515     0.13900
H816        H  0.89547230  0.67465078  0.39691953     0.14500
loop_ 
_geom_bond_atom_site_label_1 
_geom_bond_atom_site_label_2 
_geom_bond_distance 
_geom_bond_site_symmetry_2 
_ccdc_geom_bond_type 
Fe1          O17   2.058       .  S
Fe1           O7   2.058       .  S
Fe1          O14   2.078       .  S
Fe1           O6   2.065       .  S
Fe1          O12   1.962       .  S
Fe2           O5   2.026       .  S
Fe2           O9   2.073       .  S
Fe2          O13   2.046       .  S
Fe2          O18   2.085       .  S
Fe2          O12   1.970       .  S
Fe3           O8   2.089       .  S
Fe3          O15   2.085       .  S
Fe3           O4   2.066       .  S
Fe3         O429   2.081       .  S
Fe3          O12   1.993       .  S
O4           C11   1.267       .  A
O5          C427   1.257       .  A
O6           C11   1.270       .  A
O7           C10   1.269       .  A
O8          C428   1.278       .  A
O9           C22   1.276       .  A
C10          O15   1.273       .  A
C10         C197   1.471       .  S
C11         C202   1.477       .  S
O13          C16   1.258       .  A
O14          C16   1.272       .  A
C16         C182   1.485       .  S
O17          C22   1.268       .  A
O18         C428   1.279       .  A
C19          O21   1.266       .  A
C19         O413   1.261       .  A
C19         C185   1.484       .  S
C20         O416   1.277       .  A
C20         O426   1.280       .  A
C20         C193   1.483       .  S
O21        Fe411   2.080   1_455  S
C22         C189   1.474       .  S
Fe23         O39   2.036       .  S
Fe23         O29   2.059       .  S
Fe23         O36   2.050       .  S
Fe23         O28   2.037       .  S
Fe23         O34   1.949       .  S
Fe24         O27   2.062       .  S
Fe24         O31   2.102   1_556  S
Fe24         O35   2.085       .  S
Fe24         O40   2.117       .  S
Fe24         O34   1.974       .  S
Fe25         O43   2.120       .  S
Fe25         O30   2.016       .  S
Fe25         O37   2.062       .  S
Fe25         O26   2.108       .  S
Fe25         O34   1.966       .  S
O26          C33   1.284       .  A
O27          C41   1.272       .  A
O28          C33   1.270       .  A
O29          C32   1.261       .  A
O30          C42   1.257       .  A
O31          C44   1.279       .  A
C32          O37   1.262       .  A
C32         C173   1.475       .  S
C33         C190   1.471       .  S
O35          C38   1.269       .  A
O36          C38   1.261       .  A
C38         C169   1.473       .  S
O39          C44   1.273   1_556  A
O40          C42   1.278       .  A
C41          O43   1.283       .  A
C41         C165   1.499       .  S
C42         C178   1.478       .  S
C44         C162   1.474       .  S
Fe45         O61   2.052       .  S
Fe45         O51   2.065       .  S
Fe45         O58   2.079       .  S
Fe45         O50   2.069       .  S
Fe45         O56   1.952       .  S
Fe46         O49   2.036       .  S
Fe46         O53   2.067       .  S
Fe46         O57   2.052       .  S
Fe46         O62   2.079       .  S
Fe46         O56   1.970       .  S
Fe47         O52   2.046       .  S
Fe47         O59   2.074       .  S
Fe47         O48   2.076       .  S
Fe47        O269   2.095       .  S
Fe47         O56   1.970       .  S
O48          C55   1.270       .  A
O49         C267   1.262       .  A
O50          C55   1.274       .  A
O51          C54   1.268       .  A
O52         C268   1.271       .  A
O53          C66   1.273       .  A
C54          O59   1.271       .  A
C54         C186   1.469       .  S
C55         C158   1.479       .  S
O57          C60   1.261       .  A
O58          C60   1.272       .  A
C60         C177   1.484       .  S
O61          C66   1.269       .  A
O62         C268   1.273       .  A
C63          O65   1.271       .  A
C63         O253   1.263   1_545  A
C63         C174   1.488       .  S
C64         O256   1.263   1_545  A
C64         O266   1.285   1_545  A
C64         C181   1.476       .  S
O65        Fe251   2.093   1_545  S
C66         C153   1.464       .  S
Fe67         O83   2.066       .  S
Fe67         O73   2.064       .  S
Fe67         O80   2.053       .  S
Fe67         O72   2.071       .  S
Fe67         O78   1.956       .  S
Fe68         O71   2.079   1_455  S
Fe68         O75   2.063       .  S
Fe68         O79   2.101       .  S
Fe68         O84   2.084       .  S
Fe68         O78   1.982       .  S
Fe69         O74   2.069   1_455  S
Fe69         O81   2.097       .  S
Fe69         O70   2.048   1_554  S
Fe69        O495   2.080       .  S
Fe69         O78   1.982       .  S
O70          C77   1.272       .  A
O71         C493   1.278       .  A
O72          C77   1.273   1_554  A
O73          C76   1.265       .  A
O74         C494   1.267       .  A
O75          C88   1.266       .  A
C76          O81   1.268       .  A
C76         C166   1.492       .  S
C77         C154   1.465       .  S
O79          C82   1.274       .  A
O80          C82   1.266       .  A
C82         C141   1.481       .  S
O83          C88   1.273       .  A
O84         C494   1.269   1_455  A
C85          O87   1.277       .  A
C85         O479   1.276       .  A
C85         C145   1.485       .  S
C86         O482   1.267       .  A
C86         O492   1.268       .  A
C86         C170   1.487       .  S
O87        Fe477   2.089       .  S
C88         C150   1.478       .  S
Fe89        O105   2.085       .  S
Fe89         O95   2.059       .  S
Fe89        O102   2.079       .  S
Fe89         O94   2.092       .  S
Fe89        O100   1.978       .  S
Fe90         O93   2.053       .  S
Fe90         O97   2.064       .  S
Fe90        O101   2.056       .  S
Fe90        O106   2.072       .  S
Fe90        O100   1.976       .  S
Fe91        O109   2.084       .  S
Fe91         O96   2.065       .  S
Fe91        O103   2.085       .  S
Fe91         O92   2.044       .  S
Fe91        O100   1.988       .  S
O92          C99   1.267       .  A
O93         C107   1.268       .  A
O94          C99   1.278       .  A
O95          C98   1.266       .  A
O96         C108   1.270       .  A
O97         C110   1.270       .  A
C98         O103   1.269       .  A
C98         C138   1.480       .  S
C99         C149   1.472       .  S
O101        C104   1.265       .  A
O102        C104   1.265       .  A
C104        C194   1.475       .  S
O105        C110   1.277       .  A
O106        C108   1.268       .  A
C107        O109   1.271       .  A
C107        C198   1.486       .  S
C108        C133   1.481       .  S
C110        C157   1.479       .  S
Fe111       O127   2.091       .  S
Fe111       O117   2.043       .  S
Fe111       O124   2.042       .  S
Fe111       O116   2.094       .  S
Fe111       O122   1.940       .  S
Fe112       O115   2.071   1_545  S
Fe112       O119   2.052       .  S
Fe112       O123   2.092       .  S
Fe112       O128   2.077       .  S
Fe112       O122   1.956       .  S
Fe113       O118   2.077   1_545  S
Fe113       O125   2.101       .  S
Fe113       O114   2.036       .  S
Fe113       O335   2.073       .  S
Fe113       O122   1.958       .  S
O114        C121   1.267       .  A
O115        C333   1.275       .  A
O116        C121   1.278       .  A
O117        C120   1.260       .  A
O118        C334   1.273       .  A
O119        C132   1.268       .  A
C120        O125   1.271       .  A
C120        C146   1.476       .  S
C121        C161   1.466       .  S
O123        C126   1.272       .  A
O124        C126   1.262       .  A
C126        C134   1.472       .  S
O127        C132   1.277       .  A
O128        C334   1.271   1_545  A
C129        O131   1.281       .  A
C129        O319   1.270       .  A
C129        C137   1.494       .  S
C130        O322   1.268       .  A
C130        O332   1.272       .  A
C130        C142   1.495       .  S
O131       Fe317   2.115       .  S
C132        C201   1.476       .  S
C133        C134   1.345       .  D
C133        H135   1.087       .  S
C134        H136   1.087       .  S
C137        C138   1.355       .  D
C137        H139   1.086       .  S
C138        H140   1.087       .  S
C141        C142   1.351       .  D
C141        H143   1.087       .  S
C142        H144   1.087       .  S
C145        C146   1.348       .  D
C145        H147   1.086       .  S
C146        H148   1.088       .  S
C149        C150   1.339       .  D
C149        H151   1.088       .  S
C150        H152   1.087       .  S
C153        C154   1.341       .  D
C153        H155   1.087       .  S
C154        H156   1.087       .  S
C157        C158   1.341       .  D
C157        H159   1.087       .  S
C158        H160   1.087       .  S
C161        C162   1.342       .  D
C161        H163   1.087       .  S
C162        H164   1.086       .  S
C165        C166   1.358   1_556  D
C165        H167   1.086       .  S
C166        H168   1.087       .  S
C169        C170   1.348   1_556  D
C169        H171   1.087       .  S
C170        H172   1.087       .  S
C173        C174   1.353       .  D
C173        H175   1.087       .  S
C174        H176   1.086       .  S
C177        C178   1.335       .  D
C177        H179   1.086       .  S
C178        H180   1.089       .  S
C181        C182   1.333       .  D
C181        H183   1.089       .  S
C182        H184   1.087       .  S
C185        C186   1.348       .  D
C185        H187   1.087       .  S
C186        H188   1.087       .  S
C189        C190   1.338       .  D
C189        H191   1.086       .  S
C190        H192   1.087       .  S
C193        C194   1.346       .  D
C193        H195   1.088       .  S
C194        H196   1.088       .  S
C197        C198   1.347       .  D
C197        H199   1.087       .  S
C198        H200   1.086       .  S
C201        C202   1.342       .  D
C201        H203   1.087       .  S
C202        H204   1.087       .  S
Fe205       O221   2.044       .  S
Fe205       O211   2.042       .  S
Fe205       O218   2.045       .  S
Fe205       O210   2.031       .  S
Fe205       O216   1.947       .  S
Fe206       O209   2.049       .  S
Fe206       O213   2.065       .  S
Fe206       O217   2.068       .  S
Fe206       O222   2.083       .  S
Fe206       O216   1.965       .  S
Fe207       O633   2.075       .  S
Fe207       O212   2.055       .  S
Fe207       O219   2.076       .  S
Fe207       O208   2.069       .  S
Fe207       O216   1.968       .  S
O208        C215   1.267       .  A
O209        C631   1.266       .  A
O210        C215   1.263       .  A
O211        C214   1.265       .  A
O212        C632   1.272       .  A
O213        C226   1.273       .  A
C214        O219   1.270       .  A
C214        C401   1.461       .  S
C215        C406   1.468       .  S
O217        C220   1.267       .  A
O218        C220   1.262       .  A
C220        C386   1.463       .  S
O221        C226   1.263       .  A
O222        C632   1.274       .  A
C223        O617   1.262   1_455  A
C223        O225   1.269       .  A
C223        C389   1.477       .  S
C224        O620   1.270       .  A
C224        O630   1.278       .  A
C224        C397   1.478       .  S
O225       Fe615   2.086   1_455  S
C226        C393   1.463       .  S
Fe227       O243   2.023       .  S
Fe227       O233   2.067       .  S
Fe227       O240   2.062       .  S
Fe227       O232   2.022       .  S
Fe227       O238   1.941       .  S
Fe228       O231   2.043       .  S
Fe228       O235   2.113   1_556  S
Fe228       O239   2.079       .  S
Fe228       O244   2.120       .  S
Fe228       O238   1.955       .  S
Fe229       O247   2.105       .  S
Fe229       O234   2.033       .  S
Fe229       O241   2.063       .  S
Fe229       O230   2.100       .  S
Fe229       O238   1.957       .  S
O230        C237   1.281       .  A
O231        C245   1.268       .  A
O232        C237   1.263       .  A
O233        C236   1.265       .  A
O234        C246   1.265       .  A
O235        C248   1.284       .  A
C236        O241   1.263       .  A
C236        C377   1.468       .  S
C237        C394   1.461       .  S
O239        C242   1.267       .  A
O240        C242   1.265       .  A
C242        C373   1.475       .  S
O243        C248   1.264   1_556  A
O244        C246   1.281       .  A
C245        O247   1.277       .  A
C245        C369   1.486       .  S
C246        C382   1.492       .  S
C248        C366   1.467       .  S
Fe249       O265   2.038       .  S
Fe249       O255   2.062       .  S
Fe249       O262   2.060       .  S
Fe249       O254   2.045       .  S
Fe249       O260   1.943       .  S
Fe250       O253   2.045       .  S
Fe250       O257   2.113       .  S
Fe250       O261   2.065       .  S
Fe250       O266   2.128       .  S
Fe250       O260   1.967       .  S
Fe251       O256   2.021       .  S
Fe251       O263   2.053       .  S
Fe251       O252   2.098       .  S
Fe251       O260   1.966       .  S
O252        C259   1.277       .  A
O254        C259   1.272       .  A
O255        C258   1.264       .  A
O257        C270   1.288       .  A
C258        O263   1.261       .  A
C258        C390   1.461       .  S
C259        C362   1.473       .  S
O261        C264   1.261       .  A
O262        C264   1.262       .  A
C264        C381   1.475       .  S
O265        C270   1.272       .  A
C267        O269   1.271       .  A
C267        C378   1.485       .  S
C268        C385   1.471       .  S
C270        C357   1.470       .  S
Fe271       O287   2.046       .  S
Fe271       O277   2.054       .  S
Fe271       O284   2.047       .  S
Fe271       O276   2.059       .  S
Fe271       O282   1.959       .  S
Fe272       O275   2.069   1_455  S
Fe272       O279   2.064       .  S
Fe272       O283   2.091       .  S
Fe272       O288   2.090       .  S
Fe272       O282   1.984       .  S
Fe273       O699   2.093       .  S
Fe273       O278   2.048   1_455  S
Fe273       O285   2.074       .  S
Fe273       O274   2.077   1_554  S
Fe273       O282   1.975       .  S
O274        C281   1.279       .  A
O275        C697   1.276       .  A
O276        C281   1.270   1_554  A
O277        C280   1.262       .  A
O278        C698   1.264       .  A
O279        C292   1.266       .  A
C280        O285   1.263       .  A
C280        C370   1.475       .  S
C281        C358   1.474       .  S
O283        C286   1.274       .  A
O284        C286   1.265       .  A
C286        C345   1.473       .  S
O287        C292   1.267       .  A
O288        C698   1.269   1_455  A
C289        O683   1.277       .  A
C289        O291   1.277       .  A
C289        C349   1.484       .  S
C290        O686   1.264       .  A
C290        O696   1.269       .  A
C290        C374   1.490       .  S
O291       Fe681   2.086       .  S
C292        C354   1.469       .  S
Fe293       O309   2.087       .  S
Fe293       O299   2.045       .  S
Fe293       O306   2.046       .  S
Fe293       O298   2.076       .  S
Fe293       O304   1.934       .  S
Fe294       O297   2.057       .  S
Fe294       O301   2.048       .  S
Fe294       O305   2.084       .  S
Fe294       O310   2.066       .  S
Fe294       O304   1.955       .  S
Fe295       O313   2.064       .  S
Fe295       O300   2.078       .  S
Fe295       O307   2.094       .  S
Fe295       O296   2.043       .  S
Fe295       O304   1.957       .  S
O296        C303   1.264       .  A
O297        C311   1.270       .  A
O298        C303   1.272       .  A
O299        C302   1.266       .  A
O300        C312   1.276       .  A
O301        C314   1.268       .  A
C302        O307   1.273       .  A
C302        C342   1.471       .  S
C303        C353   1.466       .  S
O305        C308   1.268       .  A
O306        C308   1.262       .  A
C308        C398   1.465       .  S
O309        C314   1.275       .  A
O310        C312   1.271       .  A
C311        O313   1.267       .  A
C311        C402   1.472       .  S
C312        C337   1.476       .  S
C314        C361   1.471       .  S
Fe315       O331   2.034       .  S
Fe315       O321   2.036       .  S
Fe315       O328   2.043       .  S
Fe315       O320   2.037       .  S
Fe315       O326   1.965       .  S
Fe316       O319   2.049       .  S
Fe316       O323   2.083       .  S
Fe316       O327   2.074       .  S
Fe316       O332   2.093       .  S
Fe316       O326   1.976       .  S
Fe317       O322   2.064       .  S
Fe317       O329   2.086       .  S
Fe317       O318   2.094       .  S
Fe317       O326   1.973       .  S
O318        C325   1.281       .  A
O320        C325   1.266       .  A
O321        C324   1.259       .  A
O323        C336   1.273       .  A
C324        O329   1.268       .  A
C324        C350   1.471       .  S
C325        C365   1.471       .  S
O327        C330   1.267       .  A
O328        C330   1.262       .  A
C330        C338   1.463       .  S
O331        C336   1.265       .  A
C333        O335   1.273   1_565  A
C333        C341   1.479       .  S
C334        C346   1.485       .  S
C336        C405   1.465       .  S
C337        C338   1.342       .  D
C337        H339   1.087       .  S
C338        H340   1.088       .  S
C341        C342   1.346       .  D
C341        H343   1.086       .  S
C342        H344   1.088       .  S
C345        C346   1.347       .  D
C345        H347   1.088       .  S
C346        H348   1.086       .  S
C349        C350   1.346       .  D
C349        H351   1.086       .  S
C350        H352   1.088       .  S
C353        C354   1.341       .  D
C353        H355   1.087       .  S
C354        H356   1.087       .  S
C357        C358   1.335       .  D
C357        H359   1.087       .  S
C358        H360   1.087       .  S
C361        C362   1.343       .  D
C361        H363   1.087       .  S
C362        H364   1.087       .  S
C365        C366   1.333       .  D
C365        H367   1.087       .  S
C366        H368   1.088       .  S
C369        C370   1.352   1_556  D
C369        H371   1.087       .  S
C370        H372   1.087       .  S
C373        C374   1.349   1_556  D
C373        H375   1.087       .  S
C374        H376   1.086       .  S
C377        C378   1.350       .  D
C377        H379   1.087       .  S
C378        H380   1.087       .  S
C381        C382   1.357       .  D
C381        H383   1.086       .  S
C382        H384   1.087       .  S
C385        C386   1.344       .  D
C385        H387   1.087       .  S
C386        H388   1.087       .  S
C389        C390   1.347       .  D
C389        H391   1.088       .  S
C390        H392   1.086       .  S
C393        C394   1.331       .  D
C393        H395   1.088       .  S
C394        H396   1.088       .  S
C397        C398   1.348       .  D
C397        H399   1.087       .  S
C398        H400   1.087       .  S
C401        C402   1.342       .  D
C401        H403   1.088       .  S
C402        H404   1.087       .  S
C405        C406   1.348       .  D
C405        H407   1.087       .  S
C406        H408   1.087       .  S
Fe409       O425   2.059       .  S
Fe409       O415   2.057       .  S
Fe409       O422   2.071       .  S
Fe409       O414   2.064       .  S
Fe409       O420   1.962       .  S
Fe410       O413   2.046   1_655  S
Fe410       O417   2.076       .  S
Fe410       O421   2.058       .  S
Fe410       O426   2.086   1_655  S
Fe410       O420   1.971       .  S
Fe411       O416   2.085   1_655  S
Fe411       O423   2.088       .  S
Fe411       O412   2.067       .  S
Fe411       O420   1.992       .  S
O412        C419   1.266       .  A
O414        C419   1.269       .  A
O415        C418   1.269       .  A
O417        C430   1.277       .  A
C418        O423   1.275       .  A
C418        C605   1.472       .  S
C419        C610   1.478       .  S
O421        C424   1.261       .  A
O422        C424   1.271       .  A
C424        C590   1.488       .  S
O425        C430   1.268       .  A
C427        O429   1.265       .  A
C427        C593   1.478       .  S
C428        C601   1.485       .  S
C430        C597   1.475       .  S
Fe431       O447   2.039       .  S
Fe431       O437   2.058       .  S
Fe431       O444   2.053       .  S
Fe431       O436   2.039       .  S
Fe431       O442   1.947       .  S
Fe432       O435   2.058       .  S
Fe432       O439   2.114   1_556  S
Fe432       O443   2.088       .  S
Fe432       O448   2.131       .  S
Fe432       O442   1.972       .  S
Fe433       O451   2.118       .  S
Fe433       O438   2.015       .  S
Fe433       O445   2.062       .  S
Fe433       O434   2.111       .  S
Fe433       O442   1.966       .  S
O434        C441   1.286       .  A
O435        C449   1.272       .  A
O436        C441   1.272       .  A
O437        C440   1.261       .  A
O438        C450   1.256       .  A
O439        C452   1.282       .  A
C440        O445   1.261       .  A
C440        C581   1.476       .  S
C441        C598   1.473       .  S
O443        C446   1.270       .  A
O444        C446   1.261       .  A
C446        C577   1.476       .  S
O447        C452   1.274   1_556  A
O448        C450   1.280       .  A
C449        O451   1.283       .  A
C449        C573   1.496       .  S
C450        C586   1.484       .  S
C452        C570   1.481       .  S
Fe453       O469   2.040       .  S
Fe453       O459   2.069       .  S
Fe453       O466   2.078       .  S
Fe453       O458   2.062       .  S
Fe453       O464   1.945       .  S
Fe454       O457   2.048       .  S
Fe454       O461   2.100       .  S
Fe454       O465   2.060       .  S
Fe454       O470   2.115       .  S
Fe454       O464   1.965       .  S
Fe455       O677   2.091       .  S
Fe455       O460   2.020       .  S
Fe455       O467   2.052       .  S
Fe455       O456   2.083       .  S
Fe455       O464   1.964       .  S
O456        C463   1.274       .  A
O457        C675   1.264       .  A
O458        C463   1.275       .  A
O459        C462   1.267       .  A
O460        C676   1.263       .  A
O461        C474   1.283       .  A
C462        O467   1.263       .  A
C462        C594   1.461       .  S
C463        C566   1.474       .  S
O465        C468   1.261       .  A
O466        C468   1.269       .  A
C468        C585   1.491       .  S
O469        C474   1.272       .  A
O470        C676   1.282       .  A
C471        O661   1.263   1_545  A
C471        O473   1.270   1_545  A
C471        C582   1.488       .  S
C472        O664   1.265   1_545  A
C472        O674   1.285   1_545  A
C472        C589   1.479       .  S
O473       Fe659   2.092       .  S
C474        C561   1.465       .  S
Fe475       O491   2.060       .  S
Fe475       O481   2.060       .  S
Fe475       O488   2.050       .  S
Fe475       O480   2.064       .  S
Fe475       O486   1.962       .  S
Fe476       O479   2.071       .  S
Fe476       O483   2.060       .  S
Fe476       O487   2.092       .  S
Fe476       O492   2.079       .  S
Fe476       O486   1.988       .  S
Fe477       O482   2.064       .  S
Fe477       O489   2.089       .  S
Fe477       O478   2.062   1_554  S
Fe477       O486   1.983       .  S
O478        C485   1.275       .  A
O480        C485   1.271   1_554  A
O481        C484   1.265       .  A
O483        C496   1.266       .  A
C484        O489   1.267       .  A
C484        C574   1.487       .  S
C485        C562   1.472       .  S
O487        C490   1.272       .  A
O488        C490   1.264       .  A
C490        C549   1.476       .  S
O491        C496   1.271       .  A
C493        O495   1.276   1_655  A
C493        C553   1.482       .  S
C494        C578   1.490       .  S
C496        C558   1.473       .  S
Fe497       O513   2.079       .  S
Fe497       O503   2.057       .  S
Fe497       O510   2.073       .  S
Fe497       O502   2.083       .  S
Fe497       O508   1.975       .  S
Fe498       O501   2.062       .  S
Fe498       O505   2.057       .  S
Fe498       O509   2.065       .  S
Fe498       O514   2.069       .  S
Fe498       O508   1.977       .  S
Fe499       O517   2.079       .  S
Fe499       O504   2.061       .  S
Fe499       O511   2.083       .  S
Fe499       O500   2.042       .  S
Fe499       O508   1.988       .  S
O500        C507   1.265       .  A
O501        C515   1.269       .  A
O502        C507   1.276       .  A
O503        C506   1.266       .  A
O504        C516   1.270       .  A
O505        C518   1.269       .  A
C506        O511   1.269       .  A
C506        C546   1.477       .  S
C507        C557   1.469       .  S
O509        C512   1.266       .  A
O510        C512   1.264       .  A
C512        C602   1.476       .  S
O513        C518   1.276       .  A
O514        C516   1.268       .  A
C515        O517   1.269       .  A
C515        C606   1.486       .  S
C516        C541   1.478       .  S
C518        C565   1.475       .  S
Fe519       O535   2.092       .  S
Fe519       O525   2.041       .  S
Fe519       O532   2.040       .  S
Fe519       O524   2.102       .  S
Fe519       O530   1.941       .  S
Fe520       O523   2.068   1_545  S
Fe520       O527   2.051       .  S
Fe520       O531   2.087       .  S
Fe520       O536   2.074       .  S
Fe520       O530   1.958       .  S
Fe521       O743   2.073       .  S
Fe521       O526   2.077   1_545  S
Fe521       O533   2.100       .  S
Fe521       O522   2.040       .  S
Fe521       O530   1.958       .  S
O522        C529   1.268       .  A
O523        C741   1.274       .  A
O524        C529   1.278       .  A
O525        C528   1.260       .  A
O526        C742   1.273       .  A
O527        C540   1.267       .  A
C528        O533   1.271       .  A
C528        C554   1.474       .  S
C529        C569   1.472       .  S
O531        C534   1.271       .  A
O532        C534   1.262       .  A
C534        C542   1.468       .  S
O535        C540   1.277       .  A
O536        C742   1.270   1_545  A
C537        O727   1.274       .  A
C537        O539   1.281       .  A
C537        C545   1.490       .  S
C538        O730   1.268       .  A
C538        O740   1.270       .  A
C538        C550   1.489       .  S
O539       Fe725   2.102       .  S
C540        C609   1.476       .  S
C541        C542   1.344       .  D
C541        H543   1.087       .  S
C542        H544   1.088       .  S
C545        C546   1.353       .  D
C545        H547   1.086       .  S
C546        H548   1.088       .  S
C549        C550   1.349       .  D
C549        H551   1.087       .  S
C550        H552   1.086       .  S
C553        C554   1.346       .  D
C553        H555   1.086       .  S
C554        H556   1.088       .  S
C557        C558   1.338       .  D
C557        H559   1.088       .  S
C558        H560   1.087       .  S
C561        C562   1.338       .  D
C561        H563   1.087       .  S
C562        H564   1.087       .  S
C565        C566   1.340       .  D
C565        H567   1.087       .  S
C566        H568   1.087       .  S
C569        C570   1.344       .  D
C569        H571   1.087       .  S
C570        H572   1.086       .  S
C573        C574   1.356   1_556  D
C573        H575   1.086       .  S
C574        H576   1.087       .  S
C577        C578   1.350   1_556  D
C577        H579   1.087       .  S
C578        H580   1.087       .  S
C581        C582   1.353       .  D
C581        H583   1.087       .  S
C582        H584   1.086       .  S
C585        C586   1.338       .  D
C585        H587   1.086       .  S
C586        H588   1.089       .  S
C589        C590   1.337       .  D
C589        H591   1.088       .  S
C590        H592   1.086       .  S
C593        C594   1.349       .  D
C593        H595   1.087       .  S
C594        H596   1.087       .  S
C597        C598   1.338       .  D
C597        H599   1.086       .  S
C598        H600   1.087       .  S
C601        C602   1.347       .  D
C601        H603   1.088       .  S
C602        H604   1.087       .  S
C605        C606   1.345       .  D
C605        H607   1.087       .  S
C606        H608   1.086       .  S
C609        C610   1.342       .  D
C609        H611   1.087       .  S
C610        H612   1.087       .  S
Fe613       O629   2.035       .  S
Fe613       O619   2.062       .  S
Fe613       O626   2.060       .  S
Fe613       O618   2.050       .  S
Fe613       O624   1.944       .  S
Fe614       O617   2.039       .  S
Fe614       O621   2.074       .  S
Fe614       O625   2.055       .  S
Fe614       O630   2.101   1_655  S
Fe614       O624   1.956       .  S
Fe615       O620   2.039   1_655  S
Fe615       O627   2.059       .  S
Fe615       O616   2.078       .  S
Fe615       O624   1.955       .  S
O616        C623   1.271       .  A
O618        C623   1.267       .  A
O619        C622   1.269       .  A
O621        C634   1.276       .  A
C622        O627   1.267       .  A
C622        C809   1.457       .  S
C623        C814   1.468       .  S
O625        C628   1.263       .  A
O626        C628   1.271       .  A
C628        C794   1.476       .  S
O629        C634   1.264       .  A
C631        O633   1.268       .  A
C631        C797   1.477       .  S
C632        C805   1.477       .  S
C634        C801   1.463       .  S
Fe635       O651   2.027       .  S
Fe635       O641   2.054       .  S
Fe635       O648   2.061       .  S
Fe635       O640   2.022       .  S
Fe635       O646   1.945       .  S
Fe636       O639   2.048       .  S
Fe636       O643   2.114   1_556  S
Fe636       O647   2.081       .  S
Fe636       O652   2.116       .  S
Fe636       O646   1.964       .  S
Fe637       O655   2.103       .  S
Fe637       O642   2.044       .  S
Fe637       O649   2.077       .  S
Fe637       O638   2.091       .  S
Fe637       O646   1.967       .  S
O638        C645   1.280       .  A
O639        C653   1.270       .  A
O640        C645   1.264       .  A
O641        C644   1.262       .  A
O642        C654   1.265       .  A
O643        C656   1.282       .  A
C644        O649   1.266       .  A
C644        C785   1.473       .  S
C645        C802   1.458       .  S
O647        C650   1.267       .  A
O648        C650   1.264       .  A
C650        C781   1.476       .  S
O651        C656   1.263   1_556  A
O652        C654   1.279       .  A
C653        O655   1.278       .  A
C653        C777   1.486       .  S
C654        C790   1.494       .  S
C656        C774   1.469       .  S
Fe657       O673   2.036       .  S
Fe657       O663   2.055       .  S
Fe657       O670   2.055       .  S
Fe657       O662   2.045       .  S
Fe657       O668   1.946       .  S
Fe658       O661   2.046       .  S
Fe658       O665   2.102       .  S
Fe658       O669   2.074       .  S
Fe658       O674   2.126       .  S
Fe658       O668   1.972       .  S
Fe659       O664   2.029       .  S
Fe659       O671   2.057       .  S
Fe659       O660   2.092       .  S
Fe659       O668   1.972       .  S
O660        C667   1.275       .  A
O662        C667   1.272       .  A
O663        C666   1.263       .  A
O665        C678   1.285       .  A
C666        O671   1.262       .  A
C666        C798   1.461       .  S
C667        C770   1.471       .  S
O669        C672   1.263       .  A
O670        C672   1.261       .  A
C672        C789   1.479       .  S
O673        C678   1.271       .  A
C675        O677   1.269       .  A
C675        C786   1.488       .  S
C676        C793   1.470       .  S
C678        C765   1.465       .  S
Fe679       O695   2.040       .  S
Fe679       O685   2.053       .  S
Fe679       O692   2.045       .  S
Fe679       O684   2.057       .  S
Fe679       O690   1.961       .  S
Fe680       O683   2.072       .  S
Fe680       O687   2.063       .  S
Fe680       O691   2.093       .  S
Fe680       O696   2.086       .  S
Fe680       O690   1.985       .  S
Fe681       O686   2.051       .  S
Fe681       O693   2.076       .  S
Fe681       O682   2.067   1_554  S
Fe681       O690   1.977       .  S
O682        C689   1.276       .  A
O684        C689   1.268   1_554  A
O685        C688   1.262       .  A
O687        C700   1.265       .  A
C688        O693   1.264       .  A
C688        C778   1.475       .  S
C689        C766   1.470       .  S
O691        C694   1.274       .  A
O692        C694   1.265       .  A
C694        C753   1.472       .  S
O695        C700   1.265       .  A
C697        O699   1.279   1_655  A
C697        C757   1.485       .  S
C698        C782   1.492       .  S
C700        C762   1.468       .  S
Fe701       O717   2.082       .  S
Fe701       O707   2.046       .  S
Fe701       O714   2.047       .  S
Fe701       O706   2.072       .  S
Fe701       O712   1.935       .  S
Fe702       O705   2.059       .  S
Fe702       O709   2.047       .  S
Fe702       O713   2.086       .  S
Fe702       O718   2.067       .  S
Fe702       O712   1.955       .  S
Fe703       O721   2.063       .  S
Fe703       O708   2.073       .  S
Fe703       O715   2.089       .  S
Fe703       O704   2.041       .  S
Fe703       O712   1.956       .  S
O704        C711   1.264       .  A
O705        C719   1.270       .  A
O706        C711   1.272       .  A
O707        C710   1.265       .  A
O708        C720   1.276       .  A
O709        C722   1.268       .  A
C710        O715   1.272       .  A
C710        C750   1.469       .  S
C711        C761   1.464       .  S
O713        C716   1.268       .  A
O714        C716   1.262       .  A
C716        C806   1.469       .  S
O717        C722   1.275       .  A
O718        C720   1.271       .  A
C719        O721   1.267       .  A
C719        C810   1.472       .  S
C720        C745   1.476       .  S
C722        C769   1.468       .  S
Fe723       O739   2.043       .  S
Fe723       O729   2.049       .  S
Fe723       O736   2.042       .  S
Fe723       O728   2.058       .  S
Fe723       O734   1.951       .  S
Fe724       O727   2.061       .  S
Fe724       O731   2.072       .  S
Fe724       O735   2.083       .  S
Fe724       O740   2.086       .  S
Fe724       O734   1.974       .  S
Fe725       O730   2.062       .  S
Fe725       O737   2.091       .  S
Fe725       O726   2.077       .  S
Fe725       O734   1.967       .  S
O726        C733   1.277       .  A
O728        C733   1.268       .  A
O729        C732   1.262       .  A
O731        C744   1.268       .  A
C732        O737   1.268       .  A
C732        C758   1.478       .  S
C733        C773   1.473       .  S
O735        C738   1.272       .  A
O736        C738   1.265       .  A
C738        C746   1.465       .  S
O739        C744   1.266       .  A
C741        O743   1.273   1_565  A
C741        C749   1.478       .  S
C742        C754   1.484       .  S
C744        C813   1.475       .  S
C745        C746   1.343       .  D
C745        H747   1.087       .  S
C746        H748   1.088       .  S
C749        C750   1.346       .  D
C749        H751   1.086       .  S
C750        H752   1.088       .  S
C753        C754   1.346       .  D
C753        H755   1.088       .  S
C754        H756   1.086       .  S
C757        C758   1.350       .  D
C757        H759   1.086       .  S
C758        H760   1.088       .  S
C761        C762   1.340       .  D
C761        H763   1.087       .  S
C762        H764   1.087       .  S
C765        C766   1.335       .  D
C765        H767   1.088       .  S
C766        H768   1.087       .  S
C769        C770   1.342       .  D
C769        H771   1.087       .  S
C770        H772   1.087       .  S
C773        C774   1.335       .  D
C773        H775   1.087       .  S
C774        H776   1.087       .  S
C777        C778   1.351   1_556  D
C777        H779   1.086       .  S
C778        H780   1.087       .  S
C781        C782   1.350   1_556  D
C781        H783   1.087       .  S
C782        H784   1.086       .  S
C785        C786   1.349       .  D
C785        H787   1.087       .  S
C786        H788   1.087       .  S
C789        C790   1.357       .  D
C789        H791   1.087       .  S
C790        H792   1.087       .  S
C793        C794   1.334       .  D
C793        H795   1.090       .  S
C794        H796   1.086       .  S
C797        C798   1.346       .  D
C797        H799   1.087       .  S
C798        H800   1.087       .  S
C801        C802   1.333       .  D
C801        H803   1.087       .  S
C802        H804   1.088       .  S
C805        C806   1.348       .  D
C805        H807   1.086       .  S
C806        H808   1.088       .  S
C809        C810   1.341       .  D
C809        H811   1.088       .  S
C810        H812   1.087       .  S
C813        C814   1.346       .  D
C813        H815   1.086       .  S
C814        H816   1.087       .  S
