geometry optimzed in LAMMPS
_audit_creation_date              2020-12-01 
_audit_creation_method            'lammps2cif' 
_symmetry_space_group_name_H-M    'P1' 
_symmetry_Int_Tables_number       1 
_symmetry_cell_setting            triclinic 
loop_ 
_symmetry_equiv_pos_as_xyz 
  x,y,z 
_cell_length_a                    39.70081324 
_cell_length_b                    39.71321987363602 
_cell_length_c                    39.78744123760344 
_cell_angle_alpha                 90.0571898298637 
_cell_angle_beta                  90.24364522773337 
_cell_angle_gamma                 90.2284961731385 
loop_ 
_atom_site_label 
_atom_site_type_symbol 
_atom_site_fract_x 
_atom_site_fract_y 
_atom_site_fract_z 
_atom_site_charge 
C1          C  0.27356616  0.27207938  0.10540148     0.79500
N2          N  0.29688834  0.25322303  0.12204135    -0.78800
C3          C  0.30120515  0.25702154  0.15567248     0.81900
N4          N  0.28182323  0.27914594  0.17265718    -0.78800
C5          C  0.25911739  0.29857910  0.15631750     0.82000
N6          N  0.25444359  0.29457840  0.12270393    -0.80500
C7          C  0.22392223  0.21590141  0.35350949     0.79500
N8          N  0.24308306  0.19321855  0.33657791    -0.78800
C9          C  0.23877673  0.18920916  0.30292968     0.81900
N10         N  0.21596041  0.20828773  0.28637213    -0.78800
C11         C  0.19643738  0.23045350  0.30312693     0.82000
N12         N  0.20098765  0.23491976  0.33664948    -0.80500
C13         C  0.37354674  0.27033205  0.44903737     0.79500
N14         N  0.39063719  0.29293282  0.46843972    -0.78800
C15         C  0.42425971  0.29729210  0.46427264     0.81900
N16         N  0.44091953  0.27797811  0.44184524    -0.78800
C17         C  0.42419990  0.25545923  0.42232486     0.82000
N18         N  0.39044461  0.25120008  0.42625168    -0.80500
C19         C  0.21930887  0.37008400  0.45462384     0.79500
N20         N  0.19702009  0.38723837  0.47408961    -0.78800
C21         C  0.19219076  0.42069162  0.46908980     0.81900
N22         N  0.21049720  0.43709092  0.44559716    -0.78800
C23         C  0.23240631  0.42026264  0.42584975     0.82000
N24         N  0.23720460  0.38678250  0.43067066    -0.80500
C25         C  0.12187045  0.21965201  0.00610077     0.79500
N26         N  0.10455572  0.23902978  0.02833711    -0.78800
C27         C  0.07085712  0.23453511  0.03204607     0.81900
N28         N  0.05444796  0.21166213  0.01271964    -0.78800
C29         C  0.07149302  0.19195035  0.49093021     0.82000
N30         N  0.10518842  0.19619206  0.48730856    -0.80500
C31         C  0.27613263  0.11834831  0.00515679     0.79500
N32         N  0.25627070  0.10187185  0.02764844    -0.78800
C33         C  0.25971508  0.06818169  0.03205546     0.81900
N34         N  0.28178161  0.05091484  0.01284159    -0.78800
C35         C  0.30172618  0.06706837  0.49048461     0.82000
N36         N  0.29865202  0.10086149  0.48630716    -0.80500
O37         O  0.31498993  0.27292059  0.43758649    -0.79300
C38         C  0.23079095  0.22285408  0.38892794     0.81800
O39         O  0.21381154  0.32082493  0.48771652    -0.80400
O40         O  0.17323496  0.20693049  0.47956730    -0.81900
O41         O  0.29020007  0.17623967  0.00698440    -0.81700
O42         O  0.33242544  0.24603443  0.48367861    -0.80300
Zn43       Zn  0.26378107  0.27078256  0.43974155     1.55700
O44         O  0.24245402  0.16059373  0.48145340    -0.81700
Cd45       Cd  0.28835466  0.22850663  0.00485651     1.59700
Cd46       Cd  0.21946726  0.27316637  0.00821444     1.59600
O47         O  0.28660943  0.24599461  0.05376245    -0.81700
O48         O  0.24864258  0.24479256  0.47847815    -1.92200
Cd49       Cd  0.22225986  0.20469186  0.46290753     1.59900
O50         O  0.24070091  0.27820185  0.05586320    -0.81600
O51         O  0.22092403  0.20189672  0.41099583    -0.80300
C52         C  0.22659394  0.33450119  0.46171624     0.82300
C53         C  0.33841412  0.26262979  0.45698045     0.81900
O54         O  0.24636571  0.24992158  0.39661124    -0.79200
C55         C  0.26936603  0.15365953  0.49747427     0.82700
O56         O  0.24611162  0.31845830  0.44206767    -0.79300
C57         C  0.26672488  0.26536425  0.06966339     0.82900
C58         C  0.15763899  0.22640924  0.99956478     0.83200
O59         O  0.17178453  0.25192112  0.01318763    -0.81700
C60         C  0.27817652  0.12005648  0.25545014     0.79500
N61         N  0.25875865  0.13648547  0.27823775    -0.78800
C62         C  0.26276440  0.17008098  0.28299425     0.81900
N63         N  0.28487867  0.18738412  0.26376093    -0.78800
C64         C  0.30434446  0.17130809  0.24103915     0.82000
N65         N  0.30072545  0.13756302  0.23651492    -0.80500
C66         C  0.22059838  0.36836072  0.20408181     0.79500
N67         N  0.19857223  0.35082237  0.22362015    -0.78800
C68         C  0.19489432  0.31710978  0.21932936     0.81900
N69         N  0.21393556  0.30087705  0.19640988    -0.78800
C70         C  0.23553859  0.31803398  0.17652660     0.82000
N71         N  0.23925790  0.35181673  0.18062408    -0.80500
C72         C  0.27124655  0.46651000  0.35519578     0.79500
N73         N  0.25153832  0.44420055  0.37224365    -0.78800
C74         C  0.25598236  0.43999815  0.40584797     0.81900
N75         N  0.27909919  0.45891499  0.42241699    -0.78800
C76         C  0.29902680  0.48083029  0.40569517     0.82000
N77         N  0.29489985  0.48494340  0.37209030    -0.80500
C78         C  0.37263630  0.46781831  0.19869387     0.79500
N79         N  0.38996011  0.48659788  0.17586704    -0.78800
C80         C  0.42358949  0.48172549  0.17180448     0.81900
N81         N  0.43974869  0.45885106  0.19118025    -0.78800
C82         C  0.42264840  0.43983160  0.21363320     0.82000
N83         N  0.38919997  0.44494397  0.21802752    -0.80500
C84         C  0.22169173  0.02298662  0.10359712     0.79500
N85         N  0.24041627  0.04576433  0.08614021    -0.78800
C86         C  0.23589012  0.04902760  0.05243888     0.81900
N87         N  0.21327201  0.02906437  0.03636798    -0.78800
C88         C  0.19415469  0.00678640  0.05364755     0.82000
N89         N  0.19894058  0.50311863  0.08721357    -0.80500
C90         C  0.12110813  0.01898079  0.25577424     0.79500
N91         N  0.10386437  0.99942829  0.27801926    -0.78800
C92         C  0.07022695  0.00384755  0.28205853     0.81900
N93         N  0.05378812  0.02677215  0.26306012    -0.78800
C94         C  0.07067872  0.04657581  0.24120456     0.82000
N95         N  0.10435458  0.04246024  0.23723528    -0.80500
O96         O  0.24475479  0.48936446  0.14639808    -0.79300
C97         C  0.33764117  0.47598387  0.20660477     0.81800
O98         O  0.21358126  0.41777993  0.23667334    -0.80400
O99         O  0.28530702  0.49249632  0.30375970    -0.81900
O100        O  0.24341942  0.07839623  0.23172482    -0.81700
O101        O  0.22010432  0.03753634  0.16112317    -0.80300
Zn102      Zn  0.26302139  0.46875293  0.18910112     1.55700
O103        O  0.29104303  0.06200803  0.25682023    -0.81700
Cd104      Cd  0.22201315  0.03466994  0.21309882     1.59700
Cd105      Cd  0.21844080  0.46557551  0.25733491     1.59600
O106        O  0.17289204  0.03261194  0.23003621    -0.81700
O107        O  0.24797605  0.49426768  0.22814440    -1.92200
Cd108      Cd  0.28792159  0.00978585  0.25483637     1.59900
O109        O  0.17068816  0.48641540  0.26186974    -0.81600
O110        O  0.33175520  0.49138004  0.23404044    -0.80300
C111        C  0.22688169  0.40426161  0.21086777     0.82300
C112        C  0.22928549  0.01640817  0.13892995     0.81900
O113        O  0.31418350  0.46714647  0.18644970    -0.79200
C114        C  0.27065423  0.08489607  0.24751357     0.82700
O115        O  0.24622454  0.42069968  0.19130180    -0.79300
C116        C  0.15690155  0.01244399  0.24913777     0.82900
C117        C  0.26491752  0.47332022  0.31941024     0.83200
O118        O  0.23887871  0.46065721  0.30527924    -0.81700
C119        C  0.02623886  0.12059148  0.45174153     0.79500
N120        N  0.04884311  0.13794925  0.47093119    -0.78800
C121        C  0.05212819  0.17175778  0.46703483     0.81900
N122        N  0.03237474  0.18807937  0.44460363    -0.78800
C123        C  0.01021702  0.17094940  0.42506964     0.82000
N124        N  0.00650466  0.13721953  0.42919384    -0.80500
C125        C  0.12278110  0.46850690  0.00763934     0.79500
N126        N  0.14011280  0.48741556  0.03048645    -0.78800
C127        C  0.17376702  0.48276945  0.03458272     0.81900
N128        N  0.18998280  0.45996418  0.01529050    -0.78800
C129        C  0.17286943  0.44078004  0.49283343     0.82000
N130        N  0.13934959  0.44567263  0.48834461    -0.80500
C131        C  0.47196012  0.02194604  0.10332754     0.79500
N132        N  0.44915284  0.50201712  0.11939783    -0.78800
C133        C  0.44413841  0.00573148  0.15292559     0.81900
N134        N  0.46313015  0.02811988  0.17044932    -0.78800
C135        C  0.48579439  0.04812531  0.15467987     0.82000
N136        N  0.49048012  0.04483354  0.12104885    -0.80500
C137        C  0.47007023  0.36892733  0.00248975     0.79500
N138        N  0.44783575  0.35124900  0.48312713    -0.78800
C139        C  0.44392930  0.31762535  0.48783872     0.81100
N140        N  0.46303521  0.30161135  0.01104447    -0.78800
C141        C  0.48483840  0.31899709  0.03080564     0.82000
N142        N  0.48872064  0.35265413  0.02624013    -0.80500
C143        C  0.37085691  0.01908591  0.45127221     0.79500
N144        N  0.35317856  0.99980571  0.42896267    -0.78800
C145        C  0.31948117  0.00428708  0.42535848     0.81900
N146        N  0.30342392  0.02705993  0.44481710    -0.78800
C147        C  0.32079737  0.04667687  0.46670820     0.82000
N148        N  0.35452318  0.04244832  0.47022989    -0.80500
C149        C  0.02158589  0.46644428  0.35151649     0.79500
N150        N  0.04552423  0.48459950  0.33498666    -0.78800
C151        C  0.05003500  0.48020069  0.30149046     0.81900
N152        N  0.03006017  0.45837510  0.28447258    -0.78800
C153        C  0.00660552  0.43980325  0.30068795     0.82000
N154        N  0.50187347  0.44420383  0.33418856    -0.80500
O155        O  0.06445053  0.46704305  0.01960891    -0.79300
C156        C  0.47958739  0.01569185  0.06795279     0.81800
O157        O  0.46324169  0.41807548  0.46946209    -0.80400
O158        O  0.42278136  0.03218301  0.47710645    -0.81900
O159        O  0.03971557  0.06270612  0.44960661    -0.81700
O160        O  0.08163787  0.49261021  0.47275336    -0.80300
Zn161      Zn  0.01332583  0.46882015  0.01724057     1.55700
O162        O  0.49243252  0.07838907  0.47541281    -0.81700
Cd163      Cd  0.03754330  0.01045269  0.45179637     1.59700
Cd164      Cd  0.46828910  0.46579437  0.44877436     1.59600
O165        O  0.03520594  0.49279358  0.40300163    -0.81700
O166        O  0.49792970  0.49437567  0.47831408    -1.92200
Cd167      Cd  0.47187750  0.03437401  0.49388861     1.59900
O168        O  0.48886946  0.46081053  0.40099047    -0.81600
O169        O  0.47012464  0.03687417  0.04589654    -0.80300
C170        C  0.47662620  0.40464707  0.49536458     0.82300
C171        C  0.08773077  0.47653550  0.99976444     0.81900
O172        O  0.99539585  0.48893063  0.06028007    -0.79200
C173        C  0.01919008  0.08528439  0.45924801     0.82700
O174        O  0.49626287  0.42103016  0.01484949    -0.79300
C175        C  0.01495230  0.47345789  0.38716264     0.82900
C176        C  0.40670385  0.01240165  0.45754976     0.83200
O177        O  0.42045361  0.48670024  0.44418109    -0.81700
C178        C  0.12528058  0.26847397  0.25684819     0.79500
N179        N  0.14192381  0.29225815  0.23862011    -0.78800
C180        C  0.17552606  0.29684302  0.24291461     0.81900
N181        N  0.19255983  0.27714598  0.26478878    -0.78800
C182        C  0.17621943  0.25390327  0.28352550     0.82000
N183        N  0.14259455  0.24903213  0.27914616    -0.80500
C184        C  0.37316820  0.21891930  0.20043889     0.79500
N185        N  0.35548392  0.23765957  0.17789543    -0.78800
C186        C  0.32165192  0.23341298  0.17501112     0.81900
N187        N  0.30566071  0.21099971  0.19507781    -0.78800
C188        C  0.32318331  0.19180072  0.21709920     0.82000
N189        N  0.35691696  0.19633550  0.22039394    -0.80500
C190        C  0.46913207  0.36954786  0.25266110     0.79500
N191        N  0.48789595  0.38657734  0.27580833    -0.78800
C192        C  0.48308366  0.42003972  0.28046076     0.81900
N193        N  0.46080978  0.43665482  0.26078420    -0.78800
C194        C  0.44199774  0.41995355  0.23767947     0.82000
N195        N  0.44643919  0.38633914  0.23323687    -0.80500
C196        C  0.02500643  0.11782686  0.20288049     0.79500
N197        N  0.04739328  0.10042760  0.22213573    -0.78800
C198        C  0.05103917  0.06674887  0.21766868     0.81900
N199        N  0.03144808  0.05041685  0.19493680    -0.78800
C200        C  0.00944872  0.06749633  0.17535374     0.82000
N201        N  0.00594572  0.10122387  0.17951931    -0.80500
C202        C  0.47301377  0.21694022  0.35344655     0.79500
N203        N  0.49188744  0.19444952  0.37110915    -0.78800
C204        C  0.48665599  0.19023825  0.40454121     0.81900
N205        N  0.46348167  0.20935381  0.42041188    -0.78800
C206        C  0.44422653  0.23145468  0.40308864     0.82000
N207        N  0.44930200  0.23562642  0.36960996    -0.80500
C208        C  0.02423442  0.27378743  0.10188509     0.79500
N209        N  0.04674388  0.25431428  0.08509723    -0.78800
C210        C  0.05079872  0.25820464  0.05148569     0.81900
N211        N  0.03125095  0.28031910  0.03458088    -0.78800
C212        C  0.00884351  0.29986714  0.05100633     0.82000
N213        N  0.00494919  0.29634090  0.08474005    -0.80500
O214        O  0.45740685  0.31120960  0.25495031    -0.79300
C215        C  0.40866568  0.22637410  0.20664160     0.81800
O216        O  0.00629606  0.20992677  0.30452425    -0.80400
O217        O  0.99949345  0.16970242  0.18963523    -0.81900
O218        O  0.02742912  0.28653497  0.15990420    -0.81700
O219        O  0.50436064  0.32840231  0.22942601    -0.80300
Zn220      Zn  0.45963474  0.26020889  0.25364486     1.55700
O221        O  0.50045220  0.23975551  0.14380217    -0.81700
Cd222      Cd  0.02524741  0.28420208  0.21208037     1.59700
Cd223      Cd  0.02737310  0.21507575  0.25698137     1.59600
O224        O  0.07394329  0.28179708  0.23017994    -0.81700
O225        O  0.49836358  0.24467971  0.22807997    -1.92200
Cd226      Cd  0.48263226  0.21872031  0.18780177     1.59900
O227        O  0.07540695  0.23577607  0.26238086    -0.81600
O228        O  0.43057056  0.21670965  0.18550678    -0.80300
C229        C  0.48056293  0.22358805  0.31787365     0.82300
C230        C  0.47722859  0.33449689  0.24521772     0.81900
O231        O  0.41656161  0.24228370  0.23335226    -0.79200
C232        C  0.01698296  0.26644832  0.13712497     0.82700
O233        O  0.46153579  0.24348771  0.30148352    -0.79300
C234        C  0.08953326  0.26173508  0.24971863     0.82900
C235        C  0.01870453  0.15364331  0.20962971     0.83200
O236        O  0.03174061  0.16735004  0.23568231    -0.81700
C237        C  0.27356614  0.27207951  0.60540147     0.79500
N238        N  0.29688835  0.25322303  0.62204133    -0.78800
C239        C  0.30120513  0.25702160  0.65567246     0.81900
N240        N  0.28182328  0.27914592  0.67265718    -0.78800
C241        C  0.25911744  0.29857915  0.65631751     0.82000
N242        N  0.25444370  0.29457849  0.62270393    -0.80500
C243        C  0.22392218  0.21590130  0.85350949     0.79500
N244        N  0.24308294  0.19321847  0.83657790    -0.78800
C245        C  0.23877670  0.18920910  0.80292965     0.81900
N246        N  0.21596038  0.20828780  0.78637211    -0.78800
C247        C  0.19643746  0.23045349  0.80312690     0.82000
N248        N  0.20098757  0.23491973  0.83664949    -0.80500
C249        C  0.37354681  0.27033206  0.94903731     0.79500
N250        N  0.39063716  0.29293286  0.96843972    -0.78800
C251        C  0.42425978  0.29729207  0.96427262     0.81900
N252        N  0.44091951  0.27797816  0.94184526    -0.78800
C253        C  0.42419997  0.25545929  0.92232479     0.82000
N254        N  0.39044457  0.25120017  0.92625168    -0.80500
C255        C  0.21930899  0.37008393  0.95462380     0.79500
N256        N  0.19702015  0.38723848  0.97408969    -0.78800
C257        C  0.19219092  0.42069158  0.96908976     0.81900
N258        N  0.21049717  0.43709100  0.94559716    -0.78800
C259        C  0.23240637  0.42026254  0.92584966     0.82000
N260        N  0.23720456  0.38678259  0.93067064    -0.80500
C261        C  0.12187036  0.21965202  0.50610072     0.79500
N262        N  0.10455564  0.23902972  0.52833713    -0.78800
C263        C  0.07085701  0.23453508  0.53204616     0.81900
N264        N  0.05444787  0.21166206  0.51271966    -0.78800
C265        C  0.07149315  0.19195025  0.99093019     0.82000
N266        N  0.10518853  0.19619199  0.98730865    -0.80500
C267        C  0.27613260  0.11834832  0.50515678     0.79500
N268        N  0.25627065  0.10187182  0.52764838    -0.78800
C269        C  0.25971509  0.06818165  0.53205541     0.81900
N270        N  0.28178165  0.05091486  0.51284160    -0.78800
C271        C  0.30172615  0.06706830  0.99048467     0.82000
N272        N  0.29865200  0.10086150  0.98630717    -0.80500
O273        O  0.31498995  0.27292050  0.93758649    -0.79300
C274        C  0.23079096  0.22285406  0.88892791     0.81800
O275        O  0.21381160  0.32082489  0.98771651    -0.80400
O276        O  0.17323495  0.20693054  0.97956727    -0.81900
O277        O  0.29020014  0.17623957  0.50698439    -0.81700
O278        O  0.33242554  0.24603437  0.98367860    -0.80300
Zn279      Zn  0.26378102  0.27078247  0.93974153     1.55700
O280        O  0.24245398  0.16059373  0.98145340    -0.81700
Cd281      Cd  0.28835458  0.22850652  0.50485650     1.59700
Cd282      Cd  0.21946735  0.27316645  0.50821443     1.59600
O283        O  0.28660945  0.24599465  0.55376244    -0.81700
O284        O  0.24864259  0.24479254  0.97847815    -1.92200
Cd285      Cd  0.22225980  0.20469177  0.96290751     1.59900
O286        O  0.24070093  0.27820187  0.55586318    -0.81600
O287        O  0.22092414  0.20189666  0.91099583    -0.80300
C288        C  0.22659390  0.33450124  0.96171628     0.82300
C289        C  0.33841413  0.26262976  0.95698043     0.81900
O290        O  0.24636571  0.24992158  0.89661119    -0.79200
C291        C  0.26936605  0.15365961  0.99747428     0.82700
O292        O  0.24611160  0.31845829  0.94206759    -0.79300
C293        C  0.26672498  0.26536426  0.56966336     0.82900
C294        C  0.15763895  0.22640929  0.49956481     0.83200
O295        O  0.17178452  0.25192110  0.51318762    -0.81700
C296        C  0.27817664  0.12005651  0.75545012     0.79500
N297        N  0.25875862  0.13648551  0.77823771    -0.78800
C298        C  0.26276437  0.17008101  0.78299420     0.81900
N299        N  0.28487871  0.18738415  0.76376097    -0.78800
C300        C  0.30434450  0.17130817  0.74103913     0.82000
N301        N  0.30072545  0.13756305  0.73651492    -0.80500
C302        C  0.22059829  0.36836078  0.70408186     0.79500
N303        N  0.19857230  0.35082239  0.72362013    -0.78800
C304        C  0.19489432  0.31710986  0.71932943     0.81900
N305        N  0.21393568  0.30087706  0.69640992    -0.78800
C306        C  0.23553862  0.31803404  0.67652669     0.82000
N307        N  0.23925791  0.35181676  0.68062398    -0.80500
C308        C  0.27124673  0.46651007  0.85519584     0.79500
N309        N  0.25153838  0.44420060  0.87224360    -0.78800
C310        C  0.25598246  0.43999821  0.90584803     0.81900
N311        N  0.27909920  0.45891493  0.92241698    -0.78800
C312        C  0.29902698  0.48083025  0.90569529     0.82000
N313        N  0.29490000  0.48494331  0.87209029    -0.80500
C314        C  0.37263630  0.46781834  0.69869386     0.79500
N315        N  0.38996015  0.48659786  0.67586699    -0.78800
C316        C  0.42358944  0.48172552  0.67180445     0.81900
N317        N  0.43974874  0.45885107  0.69118029    -0.78800
C318        C  0.42264842  0.43983167  0.71363318     0.82000
N319        N  0.38920004  0.44494401  0.71802756    -0.80500
C320        C  0.22169174  0.02298669  0.60359710     0.79500
N321        N  0.24041631  0.04576431  0.58614018    -0.78800
C322        C  0.23589021  0.04902755  0.55243885     0.81900
N323        N  0.21327199  0.02906432  0.53636797    -0.78800
C324        C  0.19415463  0.00678652  0.55364754     0.82000
N325        N  0.19894057  0.50311862  0.58721358    -0.80500
C326        C  0.12110802  0.01898091  0.75577410     0.79500
N327        N  0.10386437  0.99942820  0.77801925    -0.78800
C328        C  0.07022683  0.00384761  0.78205852     0.81900
N329        N  0.05378818  0.02677222  0.76306019    -0.78800
C330        C  0.07067861  0.04657586  0.74120457     0.82000
N331        N  0.10435465  0.04246016  0.73723529    -0.80500
O332        O  0.24475471  0.48936452  0.64639809    -0.79300
C333        C  0.33764121  0.47598383  0.70660475     0.81800
O334        O  0.21358121  0.41777988  0.73667337    -0.80400
O335        O  0.28530704  0.49249645  0.80375971    -0.81900
O336        O  0.24341956  0.07839631  0.73172480    -0.81700
O337        O  0.22010442  0.03753629  0.66112319    -0.80300
Zn338      Zn  0.26302132  0.46875303  0.68910111     1.55700
O339        O  0.29104314  0.06200804  0.75682022    -0.81700
Cd340      Cd  0.22201326  0.03467004  0.71309882     1.59700
Cd341      Cd  0.21844072  0.46557540  0.75733490     1.59600
O342        O  0.17289202  0.03261202  0.73003617    -0.81700
O343        O  0.24797592  0.49426772  0.72814439    -1.92200
Cd344      Cd  0.28792154  0.00978577  0.75483637     1.59900
O345        O  0.17068807  0.48641529  0.76186973    -0.81600
O346        O  0.33175522  0.49138009  0.73404039    -0.80300
C347        C  0.22688172  0.40426164  0.71086768     0.82300
C348        C  0.22928560  0.01640814  0.63892993     0.81900
O349        O  0.31418352  0.46714637  0.68644973    -0.79200
C350        C  0.27065433  0.08489613  0.74751358     0.82700
O351        O  0.24622445  0.42069978  0.69130182    -0.79300
C352        C  0.15690155  0.01244386  0.74913783     0.82900
C353        C  0.26491758  0.47332030  0.81941023     0.83200
O354        O  0.23887881  0.46065726  0.80527924    -0.81700
C355        C  0.02623883  0.12059158  0.95174147     0.79500
N356        N  0.04884307  0.13794911  0.97093124    -0.78800
C357        C  0.05212827  0.17175786  0.96703481     0.81900
N358        N  0.03237487  0.18807926  0.94460364    -0.78800
C359        C  0.01021705  0.17094954  0.92506964     0.82000
N360        N  0.00650471  0.13721945  0.92919383    -0.80500
C361        C  0.12278111  0.46850696  0.50763936     0.79500
N362        N  0.14011274  0.48741558  0.53048655    -0.78800
C363        C  0.17376703  0.48276938  0.53458277     0.81900
N364        N  0.18998271  0.45996416  0.51529055    -0.78800
C365        C  0.17286941  0.44078006  0.99283346     0.82000
N366        N  0.13934970  0.44567249  0.98834461    -0.80500
C367        C  0.47196015  0.02194606  0.60332753     0.79500
N368        N  0.44915282  0.50201702  0.61939783    -0.78800
C369        C  0.44413843  0.00573144  0.65292555     0.81900
N370        N  0.46313016  0.02811991  0.67044931    -0.78800
C371        C  0.48579444  0.04812522  0.65467990     0.82000
N372        N  0.49048025  0.04483354  0.62104889    -0.80500
C373        C  0.47007025  0.36892735  0.50248970     0.79500
N374        N  0.44783567  0.35124893  0.98312715    -0.78800
C375        C  0.44392929  0.31762532  0.98783875     0.81100
N376        N  0.46303517  0.30161140  0.51104451    -0.78800
C377        C  0.48483838  0.31899712  0.53080564     0.82000
N378        N  0.48872071  0.35265416  0.52624013    -0.80500
C379        C  0.37085695  0.01908586  0.95127232     0.79500
N380        N  0.35317849  0.99980564  0.92896269    -0.78800
C381        C  0.31948119  0.00428715  0.92535847     0.81900
N382        N  0.30342392  0.02706001  0.94481703    -0.78800
C383        C  0.32079746  0.04667691  0.96670826     0.82000
N384        N  0.35452313  0.04244826  0.97022994    -0.80500
C385        C  0.02158587  0.46644419  0.85151648     0.79500
N386        N  0.04552421  0.48459949  0.83498665    -0.78800
C387        C  0.05003501  0.48020069  0.80149045     0.81900
N388        N  0.03006018  0.45837508  0.78447256    -0.78800
C389        C  0.00660561  0.43980316  0.80068794     0.82000
N390        N  0.50187346  0.44420374  0.83418858    -0.80500
O391        O  0.06445052  0.46704299  0.51960893    -0.79300
C392        C  0.47958747  0.01569188  0.56795283     0.81800
O393        O  0.46324166  0.41807544  0.96946207    -0.80400
O394        O  0.42278133  0.03218301  0.97710659    -0.81900
O395        O  0.03971545  0.06270610  0.94960660    -0.81700
O396        O  0.08163798  0.49261026  0.97275335    -0.80300
Zn397      Zn  0.01332592  0.46882023  0.51724056     1.55700
O398        O  0.49243255  0.07838911  0.97541275    -0.81700
Cd399      Cd  0.03754322  0.01045275  0.95179636     1.59700
Cd400      Cd  0.46828921  0.46579444  0.94877436     1.59600
O401        O  0.03520594  0.49279356  0.90300161    -0.81700
O402        O  0.49792976  0.49437571  0.97831409    -1.92200
Cd403      Cd  0.47187742  0.03437412  0.99388861     1.59900
O404        O  0.48886943  0.46081067  0.90099044    -0.81600
O405        O  0.47012475  0.03687414  0.54589654    -0.80300
C406        C  0.47662609  0.40464700  0.99536453     0.82300
C407        C  0.08773071  0.47653555  0.49976445     0.81900
O408        O  0.99539583  0.48893066  0.56028007    -0.79200
C409        C  0.01918999  0.08528433  0.95924800     0.82700
O410        O  0.49626294  0.42103022  0.51484947    -0.79300
C411        C  0.01495231  0.47345791  0.88716264     0.82900
C412        C  0.40670377  0.01240159  0.95754983     0.83200
O413        O  0.42045367  0.48670017  0.94418106    -0.81700
C414        C  0.12528049  0.26847387  0.75684825     0.79500
N415        N  0.14192385  0.29225827  0.73862022    -0.78800
C416        C  0.17552601  0.29684301  0.74291467     0.81900
N417        N  0.19255988  0.27714602  0.76478877    -0.78800
C418        C  0.17621934  0.25390321  0.78352551     0.82000
N419        N  0.14259468  0.24903205  0.77914609    -0.80500
C420        C  0.37316816  0.21891939  0.70043890     0.79500
N421        N  0.35548391  0.23765968  0.67789542    -0.78800
C422        C  0.32165196  0.23341303  0.67501109     0.81900
N423        N  0.30566072  0.21099979  0.69507779    -0.78800
C424        C  0.32318329  0.19180078  0.71709919     0.82000
N425        N  0.35691697  0.19633562  0.72039393    -0.80500
C426        C  0.46913215  0.36954773  0.75266103     0.79500
N427        N  0.48789603  0.38657738  0.77580830    -0.78800
C428        C  0.48308364  0.42003959  0.78046075     0.81900
N429        N  0.46080972  0.43665481  0.76078427    -0.78800
C430        C  0.44199775  0.41995342  0.73767944     0.82000
N431        N  0.44643926  0.38633919  0.73323681    -0.80500
C432        C  0.02500652  0.11782693  0.70288060     0.79500
N433        N  0.04739324  0.10042752  0.72213568    -0.78800
C434        C  0.05103918  0.06674894  0.71766878     0.81900
N435        N  0.03144796  0.05041674  0.69493687    -0.78800
C436        C  0.00944873  0.06749643  0.67535382     0.82000
N437        N  0.00594569  0.10122372  0.67951924    -0.80500
C438        C  0.47301370  0.21694028  0.85344658     0.79500
N439        N  0.49188742  0.19444955  0.87110924    -0.78800
C440        C  0.48665592  0.19023830  0.90454122     0.81900
N441        N  0.46348167  0.20935388  0.92041195    -0.78800
C442        C  0.44422644  0.23145477  0.90308864     0.82000
N443        N  0.44930191  0.23562637  0.86960997    -0.80500
C444        C  0.02423442  0.27378745  0.60188516     0.79500
N445        N  0.04674378  0.25431422  0.58509725    -0.78800
C446        C  0.05079869  0.25820455  0.55148576     0.81900
N447        N  0.03125090  0.28031914  0.53458095    -0.78800
C448        C  0.00884349  0.29986713  0.55100635     0.82000
N449        N  0.00494915  0.29634093  0.58474011    -0.80500
O450        O  0.45740682  0.31120954  0.75495026    -0.79300
C451        C  0.40866565  0.22637416  0.70664158     0.81800
O452        O  0.00629601  0.20992667  0.80452421    -0.80400
O453        O  0.99949353  0.16970241  0.68963524    -0.81900
O454        O  0.02742924  0.28653505  0.65990421    -0.81700
O455        O  0.50436067  0.32840226  0.72942605    -0.80300
Zn456      Zn  0.45963466  0.26020879  0.75364487     1.55700
O457        O  0.50045210  0.23975563  0.64380219    -0.81700
Cd458      Cd  0.02524734  0.28420215  0.71208035     1.59700
Cd459      Cd  0.02737321  0.21507565  0.75698135     1.59600
O460        O  0.07394325  0.28179698  0.73017998    -0.81700
O461        O  0.49836351  0.24467974  0.72807997    -1.92200
Cd462      Cd  0.48263216  0.21872038  0.68780176     1.59900
O463        O  0.07540704  0.23577593  0.76238086    -0.81600
O464        O  0.43057050  0.21670959  0.68550681    -0.80300
C465        C  0.48056298  0.22358802  0.81787370     0.82300
C466        C  0.47722859  0.33449690  0.74521773     0.81900
O467        O  0.41656155  0.24228377  0.73335222    -0.79200
C468        C  0.01698304  0.26644834  0.63712496     0.82700
O469        O  0.46153585  0.24348772  0.80148358    -0.79300
C470        C  0.08953334  0.26173509  0.74971859     0.82900
C471        C  0.01870451  0.15364323  0.70962958     0.83200
O472        O  0.03174074  0.16735003  0.73568229    -0.81700
C473        C  0.27356618  0.77207933  0.10540148     0.79500
N474        N  0.29688832  0.75322301  0.12204149    -0.78800
C475        C  0.30120509  0.75702149  0.15567250     0.81900
N476        N  0.28182317  0.77914592  0.17265732    -0.78800
C477        C  0.25911735  0.79857906  0.15631748     0.82000
N478        N  0.25444356  0.79457837  0.12270407    -0.80500
C479        C  0.22392218  0.71590139  0.35350946     0.79500
N480        N  0.24308293  0.69321851  0.33657799    -0.78800
C481        C  0.23877659  0.68920913  0.30292965     0.81900
N482        N  0.21596038  0.70828779  0.28637219    -0.78800
C483        C  0.19643734  0.73045352  0.30312691     0.82000
N484        N  0.20098757  0.73491978  0.33664954    -0.80500
C485        C  0.37354676  0.77033207  0.44903735     0.79500
N486        N  0.39063714  0.79293294  0.46843974    -0.78800
C487        C  0.42425972  0.79729211  0.46427268     0.81900
N488        N  0.44091950  0.77797813  0.44184530    -0.78800
C489        C  0.42419997  0.75545929  0.42232489     0.82000
N490        N  0.39044455  0.75120015  0.42625178    -0.80500
C491        C  0.21930909  0.87008403  0.45462376     0.79500
N492        N  0.19701999  0.88723855  0.47408974    -0.78800
C493        C  0.19219098  0.92069170  0.46908977     0.81900
N494        N  0.21049723  0.93709109  0.44559734    -0.78800
C495        C  0.23240650  0.92026263  0.42584971     0.82000
N496        N  0.23720458  0.88678264  0.43067087    -0.80500
C497        C  0.12187039  0.71965202  0.00610074     0.79500
N498        N  0.10455566  0.73902980  0.02833732    -0.78800
C499        C  0.07085708  0.73453507  0.03204617     0.81900
N500        N  0.05444793  0.71166213  0.01271976    -0.78800
C501        C  0.07149309  0.69195031  0.49093033     0.82000
N502        N  0.10518847  0.69619212  0.48730872    -0.80500
C503        C  0.27613246  0.61834833  0.00515677     0.79500
N504        N  0.25627061  0.60187177  0.02764842    -0.78800
C505        C  0.25971505  0.56818168  0.03205540     0.81900
N506        N  0.28178155  0.55091479  0.01284153    -0.78800
C507        C  0.30172612  0.56706834  0.49048456     0.82000
N508        N  0.29865185  0.60086145  0.48630710    -0.80500
O509        O  0.31498989  0.77292055  0.43758650    -0.79300
C510        C  0.23079096  0.72285414  0.38892796     0.81800
O511        O  0.21381153  0.82082494  0.48771653    -0.80400
O512        O  0.17323495  0.70693059  0.47956732    -0.81900
O513        O  0.29019997  0.67623961  0.00698441    -0.81700
O514        O  0.33242540  0.74603439  0.48367860    -0.80300
Zn515      Zn  0.26378103  0.77078254  0.43974156     1.55700
O516        O  0.24245397  0.66059379  0.48145341    -0.81700
Cd517      Cd  0.28835461  0.72850658  0.00485651     1.59700
Cd518      Cd  0.21946723  0.77316653  0.00821463     1.59600
O519        O  0.28660948  0.74599457  0.05376247    -0.81700
O520        O  0.24864252  0.74479253  0.47847818    -1.92200
Cd521      Cd  0.22225981  0.70469184  0.46290752     1.59900
O522        O  0.24070103  0.77820193  0.05586325    -0.81600
O523        O  0.22092398  0.70189675  0.41099584    -0.80300
C524        C  0.22659379  0.83450131  0.46171649     0.82300
C525        C  0.33841408  0.76262978  0.45698049     0.81900
O526        O  0.24636582  0.74992153  0.39661123    -0.79200
C527        C  0.26936597  0.65365952  0.49747429     0.82700
O528        O  0.24611165  0.81845838  0.44206768    -0.79300
C529        C  0.26672496  0.76536430  0.06966345     0.82900
C530        C  0.15763894  0.72640942  0.99956494     0.83200
O531        O  0.17178450  0.75192114  0.01318770    -0.81700
C532        C  0.27817641  0.62005644  0.25545013     0.79500
N533        N  0.25875851  0.63648550  0.27823774    -0.78800
C534        C  0.26276427  0.67008091  0.28299428     0.81900
N535        N  0.28487864  0.68738412  0.26376103    -0.78800
C536        C  0.30434441  0.67130804  0.24103922     0.82000
N537        N  0.30072536  0.63756303  0.23651496    -0.80500
C538        C  0.22059827  0.86836077  0.20408192     0.79500
N539        N  0.19857222  0.85082246  0.22362015    -0.78800
C540        C  0.19489425  0.81710991  0.21932946     0.81900
N541        N  0.21393554  0.80087713  0.19640990    -0.78800
C542        C  0.23553849  0.81803405  0.17652670     0.82000
N543        N  0.23925790  0.85181678  0.18062404    -0.80500
C544        C  0.27124670  0.96651008  0.35519595     0.79500
N545        N  0.25153846  0.94420067  0.37224367    -0.78800
C546        C  0.25598249  0.93999819  0.40584816     0.81900
N547        N  0.27909929  0.95891501  0.42241705    -0.78800
C548        C  0.29902699  0.98083025  0.40569537     0.82000
N549        N  0.29490006  0.98494339  0.37209035    -0.80500
C550        C  0.37263635  0.96781832  0.19869386     0.79500
N551        N  0.38996019  0.98659789  0.17586702    -0.78800
C552        C  0.42358948  0.98172558  0.17180446     0.81900
N553        N  0.43974877  0.95885105  0.19118025    -0.78800
C554        C  0.42264848  0.93983170  0.21363314     0.82000
N555        N  0.38920009  0.94494406  0.21802758    -0.80500
C556        C  0.22169159  0.52298658  0.10359699     0.79500
N557        N  0.24041624  0.54576430  0.08614009    -0.78800
C558        C  0.23589004  0.54902749  0.05243875     0.81900
N559        N  0.21327198  0.52906436  0.03636784    -0.78800
C560        C  0.19415458  0.50678640  0.05364740     0.82000
N561        N  0.19894071  0.00311857  0.08721369    -0.80500
C562        C  0.12110800  0.51898079  0.25577415     0.79500
N563        N  0.10386426  0.49942822  0.27801923    -0.78800
C564        C  0.07022683  0.50384764  0.28205861     0.81900
N565        N  0.05378805  0.52677229  0.26306025    -0.78800
C566        C  0.07067859  0.54657585  0.24120460     0.82000
N567        N  0.10435450  0.54246019  0.23723529    -0.80500
O568        O  0.24475476  0.98936443  0.14639814    -0.79300
C569        C  0.33764125  0.97598383  0.20660475     0.81800
O570        O  0.21358130  0.91777988  0.23667348    -0.80400
O571        O  0.28530709  0.99249639  0.30375972    -0.81900
O572        O  0.24341937  0.57839619  0.23172478    -0.81700
O573        O  0.22010424  0.53753631  0.16112307    -0.80300
Zn574      Zn  0.26302137  0.96875288  0.18910113     1.55700
O575        O  0.29104300  0.56200807  0.25682024    -0.81700
Cd576      Cd  0.22201310  0.53466990  0.21309863     1.59700
Cd577      Cd  0.21844077  0.96557546  0.25733494     1.59600
O578        O  0.17289197  0.53261203  0.23003620    -0.81700
O579        O  0.24797605  0.99426764  0.22814443    -1.92200
Cd580      Cd  0.28792154  0.50978583  0.25483638     1.59900
O581        O  0.17068817  0.98641533  0.26186978    -0.81600
O582        O  0.33175529  0.99138001  0.23404045    -0.80300
C583        C  0.22688178  0.90426161  0.21086776     0.82300
C584        C  0.22928543  0.51640818  0.13892987     0.81900
O585        O  0.31418356  0.96714642  0.18644971    -0.79200
C586        C  0.27065418  0.58489608  0.24751359     0.82700
O587        O  0.24622449  0.92069966  0.19130187    -0.79300
C588        C  0.15690151  0.51244396  0.24913780     0.82900
C589        C  0.26491767  0.97332032  0.31941024     0.83200
O590        O  0.23887886  0.96065718  0.30527928    -0.81700
C591        C  0.02623888  0.62059157  0.45174155     0.79500
N592        N  0.04884313  0.63794916  0.47093128    -0.78800
C593        C  0.05212817  0.67175788  0.46703503     0.81900
N594        N  0.03237468  0.68807935  0.44460387    -0.78800
C595        C  0.01021700  0.67094955  0.42506985     0.82000
N596        N  0.00650461  0.63721952  0.42919401    -0.80500
C597        C  0.12278118  0.96850705  0.00763943     0.79500
N598        N  0.14011284  0.98741567  0.03048660    -0.78800
C599        C  0.17376711  0.98276946  0.03458288     0.81900
N600        N  0.18998280  0.95996423  0.01529059    -0.78800
C601        C  0.17286947  0.94078016  0.49283356     0.82000
N602        N  0.13934973  0.94567255  0.48834474    -0.80500
C603        C  0.47195998  0.52194610  0.10332754     0.79500
N604        N  0.44915289  0.00201701  0.11939784    -0.78800
C605        C  0.44413834  0.50573143  0.15292557     0.81900
N606        N  0.46313015  0.52811985  0.17044935    -0.78800
C607        C  0.48579430  0.54812526  0.15467987     0.82000
N608        N  0.49048006  0.54483367  0.12104889    -0.80500
C609        C  0.47007027  0.86892741  0.00248982     0.79500
N610        N  0.44783572  0.85124891  0.48312710    -0.78800
C611        C  0.44392927  0.81762539  0.48783879     0.81100
N612        N  0.46303519  0.80161140  0.01104451    -0.78800
C613        C  0.48483836  0.81899717  0.03080570     0.82000
N614        N  0.48872060  0.85265418  0.02624018    -0.80500
C615        C  0.37085675  0.51908591  0.45127226     0.79500
N616        N  0.35317842  0.49980560  0.42896265    -0.78800
C617        C  0.31948102  0.50428714  0.42535844     0.81900
N618        N  0.30342383  0.52705992  0.44481702    -0.78800
C619        C  0.32079725  0.54667689  0.46670817     0.82000
N620        N  0.35452310  0.54244827  0.47022983    -0.80500
C621        C  0.02158596  0.96644424  0.35151649     0.79500
N622        N  0.04552437  0.98459947  0.33498662    -0.78800
C623        C  0.05003511  0.98020059  0.30149045     0.81900
N624        N  0.03006031  0.95837503  0.28447257    -0.78800
C625        C  0.00660561  0.93980320  0.30068795     0.82000
N626        N  0.50187346  0.94420379  0.33418858    -0.80500
O627        O  0.06445059  0.96704305  0.01960893    -0.79300
C628        C  0.47958731  0.51569195  0.06795282     0.81800
O629        O  0.46324171  0.91807544  0.46946206    -0.80400
O630        O  0.42278128  0.53218313  0.47710639    -0.81900
O631        O  0.03971547  0.56270608  0.44960663    -0.81700
O632        O  0.08163807  0.99261033  0.47275341    -0.80300
Zn633      Zn  0.01332598  0.96882012  0.01724054     1.55700
O634        O  0.49243249  0.57838920  0.47541283    -0.81700
Cd635      Cd  0.03754305  0.51045265  0.45179638     1.59700
Cd636      Cd  0.46828926  0.96579433  0.44877436     1.59600
O637        O  0.03520603  0.99279359  0.40300163    -0.81700
O638        O  0.49792978  0.99437560  0.47831409    -1.92200
Cd639      Cd  0.47187744  0.53437418  0.49388860     1.59900
O640        O  0.48886951  0.96081069  0.40099044    -0.81600
O641        O  0.47012459  0.53687417  0.04589655    -0.80300
C642        C  0.47662611  0.90464700  0.49536441     0.82300
C643        C  0.08773081  0.97653562  0.99976447     0.81900
O644        O  0.99539582  0.98893059  0.06027994    -0.79200
C645        C  0.01919004  0.58528438  0.45924804     0.82700
O646        O  0.49626295  0.92103023  0.01484950    -0.79300
C647        C  0.01495236  0.97345792  0.38716263     0.82900
C648        C  0.40670375  0.51240161  0.45754971     0.83200
O649        O  0.42045375  0.98670020  0.44418106    -0.81700
C650        C  0.12528055  0.76847398  0.25684823     0.79500
N651        N  0.14192375  0.79225830  0.23862024    -0.78800
C652        C  0.17552603  0.79684310  0.24291472     0.81900
N653        N  0.19255978  0.77714606  0.26478882    -0.78800
C654        C  0.17621937  0.75390326  0.28352554     0.82000
N655        N  0.14259454  0.74903211  0.27914611    -0.80500
C656        C  0.37316814  0.71891932  0.20043903     0.79500
N657        N  0.35548385  0.73765963  0.17789561    -0.78800
C658        C  0.32165186  0.73341294  0.17501126     0.81900
N659        N  0.30566066  0.71099966  0.19507785    -0.78800
C660        C  0.32318327  0.69180065  0.21709926     0.82000
N661        N  0.35691691  0.69633546  0.22039402    -0.80500
C662        C  0.46913208  0.86954780  0.25266121     0.79500
N663        N  0.48789601  0.88657747  0.27580838    -0.78800
C664        C  0.48308369  0.92003969  0.28046075     0.81900
N665        N  0.46080981  0.93665491  0.26078417    -0.78800
C666        C  0.44199784  0.91995350  0.23767944     0.82000
N667        N  0.44643926  0.88633923  0.23323688    -0.80500
C668        C  0.02500637  0.61782690  0.20288046     0.79500
N669        N  0.04739321  0.60042757  0.22213570    -0.78800
C670        C  0.05103904  0.56674889  0.21766873     0.81900
N671        N  0.03144790  0.55041681  0.19493687    -0.78800
C672        C  0.00944862  0.56749636  0.17535377     0.82000
N673        N  0.00594566  0.60122384  0.17951927    -0.80500
C674        C  0.47301376  0.71694028  0.35344660     0.79500
N675        N  0.49188744  0.69444950  0.37110935    -0.78800
C676        C  0.48665597  0.69023827  0.40454124     0.81900
N677        N  0.46348162  0.70935381  0.42041202    -0.78800
C678        C  0.44422645  0.73145471  0.40308866     0.82000
N679        N  0.44930197  0.73562639  0.36961008    -0.80500
C680        C  0.02423437  0.77378752  0.10188527     0.79500
N681        N  0.04674385  0.75431424  0.08509734    -0.78800
C682        C  0.05079862  0.75820462  0.05148591     0.81900
N683        N  0.03125088  0.78031909  0.03458104    -0.78800
C684        C  0.00884343  0.79986716  0.05100650     0.82000
N685        N  0.00494916  0.79634091  0.08474020    -0.80500
O686        O  0.45740680  0.81120959  0.25495052    -0.79300
C687        C  0.40866563  0.72637407  0.20664165     0.81800
O688        O  0.00629600  0.70992676  0.30452433    -0.80400
O689        O  0.99949340  0.66970241  0.18963523    -0.81900
O690        O  0.02742912  0.78653501  0.15990430    -0.81700
O691        O  0.50436059  0.82840234  0.22942623    -0.80300
Zn692      Zn  0.45963470  0.76020885  0.25364489     1.55700
O693        O  0.50045211  0.73975559  0.14380223    -0.81700
Cd694      Cd  0.02524736  0.78420222  0.21208040     1.59700
Cd695      Cd  0.02737307  0.71507571  0.25698155     1.59600
O696        O  0.07394325  0.78179704  0.23017997    -0.81700
O697        O  0.49836357  0.74467969  0.22808000    -1.92200
Cd698      Cd  0.48263220  0.71872027  0.18780177     1.59900
O699        O  0.07540701  0.73577600  0.26238087    -0.81600
O700        O  0.43057048  0.71670961  0.18550680    -0.80300
C701        C  0.48056290  0.72358808  0.31787378     0.82300
C702        C  0.47722857  0.83449696  0.24521795     0.81900
O703        O  0.41656161  0.74228367  0.23335229    -0.79200
C704        C  0.01698293  0.76644833  0.13712507     0.82700
O705        O  0.46153575  0.74348773  0.30148363    -0.79300
C706        C  0.08953326  0.76173504  0.24971862     0.82900
C707        C  0.01870449  0.65364327  0.20962971     0.83200
O708        O  0.03174055  0.66735002  0.23568234    -0.81700
C709        C  0.27356605  0.77207949  0.60540148     0.79500
N710        N  0.29688833  0.75322299  0.62204146    -0.78800
C711        C  0.30120505  0.75702158  0.65567247     0.81900
N712        N  0.28182328  0.77914587  0.67265733    -0.78800
C713        C  0.25911741  0.79857917  0.65631749     0.82000
N714        N  0.25444368  0.79457846  0.62270410    -0.80500
C715        C  0.22392214  0.71590138  0.85350948     0.79500
N716        N  0.24308285  0.69321846  0.83657799    -0.78800
C717        C  0.23877660  0.68920908  0.80292969     0.81900
N718        N  0.21596031  0.70828778  0.78637218    -0.78800
C719        C  0.19643740  0.73045352  0.80312691     0.82000
N720        N  0.20098759  0.73491983  0.83664953    -0.80500
C721        C  0.37354678  0.77033212  0.94903742     0.79500
N722        N  0.39063711  0.79293286  0.96843983    -0.78800
C723        C  0.42425974  0.79729215  0.96427269     0.81900
N724        N  0.44091945  0.77797819  0.94184531    -0.78800
C725        C  0.42419996  0.75545927  0.92232501     0.82000
N726        N  0.39044452  0.75120012  0.92625184    -0.80500
C727        C  0.21930905  0.87008408  0.95462383     0.79500
N728        N  0.19702010  0.88723842  0.97408968    -0.78800
C729        C  0.19219089  0.92069170  0.96908982     0.81900
N730        N  0.21049730  0.93709098  0.94559730    -0.78800
C731        C  0.23240643  0.92026270  0.92584977     0.82000
N732        N  0.23720469  0.88678255  0.93067081    -0.80500
C733        C  0.12187041  0.71965204  0.50610079     0.79500
N734        N  0.10455574  0.73902983  0.52833728    -0.78800
C735        C  0.07085706  0.73453520  0.53204615     0.81900
N736        N  0.05444795  0.71166226  0.51271976    -0.78800
C737        C  0.07149311  0.69195027  0.99093032     0.82000
N738        N  0.10518848  0.69619216  0.98730869    -0.80500
C739        C  0.27613250  0.61834829  0.50515674     0.79500
N740        N  0.25627058  0.60187177  0.52764839    -0.78800
C741        C  0.25971502  0.56818160  0.53205535     0.81900
N742        N  0.28178162  0.55091481  0.51284157    -0.78800
C743        C  0.30172606  0.56706842  0.99048454     0.82000
N744        N  0.29865189  0.60086147  0.98630713    -0.80500
O745        O  0.31498990  0.77292046  0.93758650    -0.79300
C746        C  0.23079091  0.72285411  0.88892795     0.81800
O747        O  0.21381162  0.82082502  0.98771660    -0.80400
O748        O  0.17323490  0.70693056  0.97956731    -0.81900
O749        O  0.29020013  0.67623953  0.50698440    -0.81700
O750        O  0.33242549  0.74603432  0.98367860    -0.80300
Zn751      Zn  0.26378097  0.77078243  0.93974153     1.55700
O752        O  0.24245386  0.66059377  0.98145338    -0.81700
Cd753      Cd  0.28835453  0.72850647  0.50485650     1.59700
Cd754      Cd  0.21946733  0.77316642  0.50821461     1.59600
O755        O  0.28660935  0.74599462  0.55376246    -0.81700
O756        O  0.24864253  0.74479261  0.97847823    -1.92200
Cd757      Cd  0.22225974  0.70469192  0.96290752     1.59900
O758        O  0.24070093  0.77820200  0.55586324    -0.81600
O759        O  0.22092405  0.70189678  0.91099584    -0.80300
C760        C  0.22659393  0.83450122  0.96171640     0.82300
C761        C  0.33841407  0.76262976  0.95698047     0.81900
O762        O  0.24636571  0.74992161  0.89661119    -0.79200
C763        C  0.26936588  0.65365956  0.99747428     0.82700
O764        O  0.24611158  0.81845828  0.94206765    -0.79300
C765        C  0.26672496  0.76536427  0.56966344     0.82900
C766        C  0.15763898  0.72640939  0.49956491     0.83200
O767        O  0.17178455  0.75192116  0.51318770    -0.81700
C768        C  0.27817640  0.62005645  0.75545010     0.79500
N769        N  0.25875851  0.63648551  0.77823772    -0.78800
C770        C  0.26276431  0.67008096  0.78299430     0.81900
N771        N  0.28487869  0.68738413  0.76376111    -0.78800
C772        C  0.30434444  0.67130808  0.74103919     0.82000
N773        N  0.30072531  0.63756308  0.73651492    -0.80500
C774        C  0.22059822  0.86836076  0.70408195     0.79500
N775        N  0.19857230  0.85082245  0.72362010    -0.78800
C776        C  0.19489423  0.81710984  0.71932948     0.81900
N777        N  0.21393568  0.80087712  0.69640990    -0.78800
C778        C  0.23553861  0.81803399  0.67652684     0.82000
N779        N  0.23925802  0.85181678  0.68062406    -0.80500
C780        C  0.27124668  0.96651008  0.85519592     0.79500
N781        N  0.25153842  0.94420060  0.87224366    -0.78800
C782        C  0.25598244  0.93999822  0.90584812     0.81900
N783        N  0.27909917  0.95891511  0.92241705    -0.78800
C784        C  0.29902686  0.98083035  0.90569534     0.82000
N785        N  0.29489993  0.98494342  0.87209034    -0.80500
C786        C  0.37263640  0.96781834  0.69869384     0.79500
N787        N  0.38996020  0.98659781  0.67586699    -0.78800
C788        C  0.42358958  0.98172551  0.67180445     0.81900
N789        N  0.43974881  0.95885106  0.69118030    -0.78800
C790        C  0.42264850  0.93983166  0.71363316     0.82000
N791        N  0.38920010  0.94494398  0.71802756    -0.80500
C792        C  0.22169166  0.52298668  0.60359699     0.79500
N793        N  0.24041625  0.54576426  0.58614005    -0.78800
C794        C  0.23589014  0.54902748  0.55243872     0.81900
N795        N  0.21327195  0.52906427  0.53636782    -0.78800
C796        C  0.19415461  0.50678642  0.55364744     0.82000
N797        N  0.19894061  0.00311867  0.58721372    -0.80500
C798        C  0.12110799  0.51898082  0.75577421     0.79500
N799        N  0.10386434  0.49942826  0.77801926    -0.78800
C800        C  0.07022681  0.50384762  0.78205862     0.81900
N801        N  0.05378814  0.52677224  0.76306015    -0.78800
C802        C  0.07067858  0.54657582  0.74120460     0.82000
N803        N  0.10435461  0.54246024  0.73723531    -0.80500
O804        O  0.24475494  0.98936445  0.64639807    -0.79300
C805        C  0.33764127  0.97598387  0.70660477     0.81800
O806        O  0.21358125  0.91777990  0.73667346    -0.80400
O807        O  0.28530712  0.99249636  0.80375972    -0.81900
O808        O  0.24341928  0.57839627  0.73172477    -0.81700
O809        O  0.22010432  0.53753646  0.66112304    -0.80300
Zn810      Zn  0.26302150  0.96875297  0.68910112     1.55700
O811        O  0.29104287  0.56200800  0.75682021    -0.81700
Cd812      Cd  0.22201301  0.53467000  0.71309862     1.59700
Cd813      Cd  0.21844088  0.96557555  0.75733491     1.59600
O814        O  0.17289193  0.53261193  0.73003616    -0.81700
O815        O  0.24797612  0.99426772  0.72814439    -1.92200
Cd816      Cd  0.28792146  0.50978573  0.75483635     1.59900
O817        O  0.17068815  0.98641541  0.76186974    -0.81600
O818        O  0.33175526  0.99138009  0.73404038    -0.80300
C819        C  0.22688179  0.90426164  0.71086770     0.82300
C820        C  0.22928543  0.51640826  0.63892985     0.81900
O821        O  0.31418360  0.96714635  0.68644972    -0.79200
C822        C  0.27065409  0.58489611  0.74751355     0.82700
O823        O  0.24622453  0.92069972  0.69130192    -0.79300
C824        C  0.15690149  0.51244386  0.74913778     0.82900
C825        C  0.26491761  0.97332027  0.81941024     0.83200
O826        O  0.23887883  0.96065728  0.80527926    -0.81700
C827        C  0.02623877  0.62059156  0.95174156     0.79500
N828        N  0.04884308  0.63794918  0.97093133    -0.78800
C829        C  0.05212822  0.67175781  0.96703496     0.81900
N830        N  0.03237476  0.68807935  0.94460383    -0.78800
C831        C  0.01021698  0.67094953  0.92506984     0.82000
N832        N  0.00650465  0.63721952  0.92919398    -0.80500
C833        C  0.12278118  0.96850695  0.50763942     0.79500
N834        N  0.14011280  0.98741559  0.53048662    -0.78800
C835        C  0.17376704  0.98276948  0.53458287     0.81900
N836        N  0.18998284  0.95996432  0.51529057    -0.78800
C837        C  0.17286950  0.94078013  0.99283352     0.82000
N838        N  0.13934966  0.94567265  0.98834472    -0.80500
C839        C  0.47196009  0.52194614  0.60332753     0.79500
N840        N  0.44915293  0.00201708  0.61939782    -0.78800
C841        C  0.44413840  0.50573146  0.65292555     0.81900
N842        N  0.46313008  0.52811983  0.67044931    -0.78800
C843        C  0.48579437  0.54812529  0.65467990     0.82000
N844        N  0.49048005  0.54483356  0.62104886    -0.80500
C845        C  0.47007039  0.86892737  0.50248976     0.79500
N846        N  0.44783565  0.85124899  0.98312715    -0.78800
C847        C  0.44392927  0.81762543  0.98783876     0.81100
N848        N  0.46303510  0.80161139  0.51104466    -0.78800
C849        C  0.48483833  0.81899715  0.53080574     0.82000
N850        N  0.48872068  0.85265415  0.52624010    -0.80500
C851        C  0.37085679  0.51908578  0.95127215     0.79500
N852        N  0.35317852  0.49980569  0.92896273    -0.78800
C853        C  0.31948106  0.50428702  0.92535840     0.81900
N854        N  0.30342388  0.52705998  0.94481703    -0.78800
C855        C  0.32079724  0.54667688  0.96670805     0.82000
N856        N  0.35452310  0.54244837  0.97022988    -0.80500
C857        C  0.02158601  0.96644413  0.85151650     0.79500
N858        N  0.04552437  0.98459938  0.83498662    -0.78800
C859        C  0.05003508  0.98020064  0.80149044     0.81900
N860        N  0.03006018  0.95837505  0.78447253    -0.78800
C861        C  0.00660562  0.93980319  0.80068797     0.82000
N862        N  0.50187363  0.94420370  0.83418857    -0.80500
O863        O  0.06445061  0.96704294  0.51960887    -0.79300
C864        C  0.47958737  0.51569186  0.56795283     0.81800
O865        O  0.46324177  0.91807545  0.96946205    -0.80400
O866        O  0.42278130  0.53218303  0.97710637    -0.81900
O867        O  0.03971543  0.56270613  0.94960660    -0.81700
O868        O  0.08163800  0.99261028  0.97275336    -0.80300
Zn869      Zn  0.01332594  0.96882018  0.51724056     1.55700
O870        O  0.49243250  0.57838908  0.97541276    -0.81700
Cd871      Cd  0.03754318  0.51045274  0.95179636     1.59700
Cd872      Cd  0.46828919  0.96579440  0.94877435     1.59600
O873        O  0.03520609  0.99279348  0.90300162    -0.81700
O874        O  0.49792975  0.99437570  0.97831407    -1.92200
Cd875      Cd  0.47187738  0.53437408  0.99388860     1.59900
O876        O  0.48886950  0.96081057  0.90099045    -0.81600
O877        O  0.47012450  0.53687410  0.54589653    -0.80300
C878        C  0.47662611  0.90464705  0.99536449     0.82300
C879        C  0.08773082  0.97653553  0.49976448     0.81900
O880        O  0.99539595  0.98893066  0.56028006    -0.79200
C881        C  0.01918999  0.58528435  0.95924803     0.82700
O882        O  0.49626297  0.92103022  0.51484945    -0.79300
C883        C  0.01495245  0.97345786  0.88716263     0.82900
C884        C  0.40670378  0.51240170  0.95754981     0.83200
O885        O  0.42045373  0.98670026  0.94418110    -0.81700
C886        C  0.12528047  0.76847408  0.75684817     0.79500
N887        N  0.14192380  0.79225828  0.73862024    -0.78800
C888        C  0.17552600  0.79684312  0.74291462     0.81900
N889        N  0.19255984  0.77714604  0.76478881    -0.78800
C890        C  0.17621931  0.75390334  0.78352554     0.82000
N891        N  0.14259462  0.74903216  0.77914620    -0.80500
C892        C  0.37316811  0.71891932  0.70043905     0.79500
N893        N  0.35548384  0.73765972  0.67789557    -0.78800
C894        C  0.32165191  0.73341296  0.67501124     0.81900
N895        N  0.30566067  0.71099974  0.69507782    -0.78800
C896        C  0.32318323  0.69180071  0.71709928     0.82000
N897        N  0.35691693  0.69633556  0.72039398    -0.80500
C898        C  0.46913215  0.86954773  0.75266124     0.79500
N899        N  0.48789602  0.88657735  0.77580835    -0.78800
C900        C  0.48308381  0.92003962  0.78046076     0.81900
N901        N  0.46080988  0.93665485  0.76078418    -0.78800
C902        C  0.44199789  0.91995344  0.73767949     0.82000
N903        N  0.44643924  0.88633919  0.73323688    -0.80500
C904        C  0.02500630  0.61782693  0.70288052     0.79500
N905        N  0.04739317  0.60042755  0.72213574    -0.78800
C906        C  0.05103906  0.56674894  0.71766871     0.81900
N907        N  0.03144790  0.55041680  0.69493689    -0.78800
C908        C  0.00944855  0.56749640  0.67535378     0.82000
N909        N  0.00594560  0.60122382  0.67951930    -0.80500
C910        C  0.47301368  0.71694030  0.85344667     0.79500
N911        N  0.49188738  0.69444951  0.87110936    -0.78800
C912        C  0.48665592  0.69023834  0.90454131     0.81900
N913        N  0.46348170  0.70935387  0.92041210    -0.78800
C914        C  0.44422643  0.73145476  0.90308872     0.82000
N915        N  0.44930192  0.73562641  0.86961016    -0.80500
C916        C  0.02423436  0.77378748  0.60188525     0.79500
N917        N  0.04674380  0.75431433  0.58509731    -0.78800
C918        C  0.05079870  0.75820471  0.55148590     0.81900
N919        N  0.03125084  0.78031920  0.53458103    -0.78800
C920        C  0.00884342  0.79986719  0.55100652     0.82000
N921        N  0.00494908  0.79634096  0.58474020    -0.80500
O922        O  0.45740676  0.81120951  0.75495047    -0.79300
C923        C  0.40866561  0.72637414  0.70664162     0.81800
O924        O  0.00629612  0.70992683  0.80452436    -0.80400
O925        O  0.99949349  0.66970248  0.68963523    -0.81900
O926        O  0.02742918  0.78653504  0.65990426    -0.81700
O927        O  0.50436062  0.82840220  0.72942626    -0.80300
Zn928      Zn  0.45963461  0.76020875  0.75364489     1.55700
O929        O  0.50045205  0.73975556  0.64380222    -0.81700
Cd930      Cd  0.02524729  0.78420212  0.71208038     1.59700
Cd931      Cd  0.02737318  0.71507580  0.75698153     1.59600
O932        O  0.07394320  0.78179713  0.73017996    -0.81700
O933        O  0.49836347  0.74467972  0.72807999    -1.92200
Cd934      Cd  0.48263212  0.71872035  0.68780177     1.59900
O935        O  0.07540700  0.73577611  0.76238087    -0.81600
O936        O  0.43057043  0.71670971  0.68550679    -0.80300
C937        C  0.48056292  0.72358804  0.81787379     0.82300
C938        C  0.47722852  0.83449683  0.74521795     0.81900
O939        O  0.41656152  0.74228373  0.73335229    -0.79200
C940        C  0.01698302  0.76644839  0.63712505     0.82700
O941        O  0.46153575  0.74348767  0.80148361    -0.79300
C942        C  0.08953330  0.76173511  0.74971867     0.82900
C943        C  0.01870450  0.65364329  0.70962970     0.83200
O944        O  0.03174066  0.66735006  0.73568233    -0.81700
C945        C  0.77356621  0.27207941  0.10540148     0.79500
N946        N  0.79688842  0.25322303  0.12204134    -0.78800
C947        C  0.80120523  0.25702155  0.15567247     0.81900
N948        N  0.78182332  0.27914595  0.17265718    -0.78800
C949        C  0.75911747  0.29857910  0.15631750     0.82000
N950        N  0.75444368  0.29457840  0.12270394    -0.80500
C951        C  0.72392211  0.21590139  0.35350949     0.79500
N952        N  0.74308294  0.19321851  0.33657793    -0.78800
C953        C  0.73877666  0.18920914  0.30292966     0.81900
N954        N  0.71596042  0.20828778  0.28637212    -0.78800
C955        C  0.69643740  0.23045353  0.30312691     0.82000
N956        N  0.70098754  0.23491975  0.33664947    -0.80500
C957        C  0.87354682  0.27033205  0.44903737     0.79500
N958        N  0.89063727  0.29293282  0.46843972    -0.78800
C959        C  0.92425978  0.29729208  0.46427262     0.81900
N960        N  0.94091959  0.27797810  0.44184525    -0.78800
C961        C  0.92419996  0.25545922  0.42232486     0.82000
N962        N  0.89044465  0.25120010  0.42625170    -0.80500
C963        C  0.71930896  0.37008400  0.45462384     0.79500
N964        N  0.69702015  0.38723837  0.47408962    -0.78800
C965        C  0.69219085  0.42069161  0.46908978     0.81900
N966        N  0.71049726  0.43709092  0.44559718    -0.78800
C967        C  0.73240636  0.42026262  0.42584974     0.82000
N968        N  0.73720467  0.38678251  0.43067066    -0.80500
C969        C  0.62187046  0.21965204  0.00610075     0.79500
N970        N  0.60455574  0.23902976  0.02833710    -0.78800
C971        C  0.57085713  0.23453513  0.03204609     0.81900
N972        N  0.55444796  0.21166214  0.01271967    -0.78800
C973        C  0.57149310  0.19195033  0.49093020     0.82000
N974        N  0.60518848  0.19619206  0.48730857    -0.80500
C975        C  0.77613258  0.11834830  0.00515677     0.79500
N976        N  0.75627062  0.10187183  0.02764839    -0.78800
C977        C  0.75971511  0.06818167  0.03205548     0.81900
N978        N  0.78178165  0.05091485  0.01284164    -0.78800
C979        C  0.80172622  0.06706836  0.49048458     0.82000
N980        N  0.79865196  0.10086148  0.48630716    -0.80500
O981        O  0.81499002  0.27292059  0.43758649    -0.79300
C982        C  0.73079089  0.22285408  0.38892795     0.81800
O983        O  0.71381160  0.32082494  0.48771652    -0.80400
O984        O  0.67323489  0.20693049  0.47956727    -0.81900
O985        O  0.79020011  0.17623964  0.00698440    -0.81700
O986        O  0.83242552  0.24603442  0.48367861    -0.80300
Zn987      Zn  0.76378115  0.27078255  0.43974155     1.55700
O988        O  0.74245402  0.16059372  0.48145335    -0.81700
Cd989      Cd  0.78835470  0.22850663  0.00485651     1.59700
Cd990      Cd  0.71946731  0.27316637  0.00821444     1.59600
O991        O  0.78660939  0.24599457  0.05376245    -0.81700
O992        O  0.74864259  0.24479256  0.47847816    -1.92200
Cd993      Cd  0.72225974  0.20469186  0.46290753     1.59900
O994        O  0.74070095  0.27820191  0.05586321    -0.81600
O995        O  0.72092404  0.20189672  0.41099584    -0.80300
C996        C  0.72659402  0.33450119  0.46171625     0.82300
C997        C  0.83841420  0.26262980  0.45698045     0.81900
O998        O  0.74636573  0.24992158  0.39661122    -0.79200
C999        C  0.76936603  0.15365954  0.49747427     0.82700
O1000       O  0.74611170  0.31845830  0.44206767    -0.79300
C1001       C  0.76672493  0.26536423  0.06966339     0.82900
C1002       C  0.65763899  0.22640923  0.99956476     0.83200
O1003       O  0.67178456  0.25192111  0.01318764    -0.81700
C1004       C  0.77817658  0.12005646  0.25545016     0.79500
N1005       N  0.75875869  0.13648546  0.27823774    -0.78800
C1006       C  0.76276437  0.17008095  0.28299426     0.81900
N1007       N  0.78487868  0.18738413  0.26376094    -0.78800
C1008       C  0.80434446  0.17130810  0.24103917     0.82000
N1009       N  0.80072551  0.13756303  0.23651493    -0.80500
C1010       C  0.72059829  0.36836071  0.20408188     0.79500
N1011       N  0.69857226  0.35082239  0.22362010    -0.78800
C1012       C  0.69489428  0.31710977  0.21932935     0.81900
N1013       N  0.71393562  0.30087706  0.19640986    -0.78800
C1014       C  0.73553862  0.31803398  0.17652666     0.82000
N1015       N  0.73925797  0.35181673  0.18062405    -0.80500
C1016       C  0.77124662  0.46650998  0.35519578     0.79500
N1017       N  0.75153839  0.44420053  0.37224363    -0.78800
C1018       C  0.75598242  0.43999818  0.40584798     0.81900
N1019       N  0.77909916  0.45891504  0.42241699    -0.78800
C1020       C  0.79902686  0.48083030  0.40569516     0.82000
N1021       N  0.79489993  0.48494338  0.37209030    -0.80500
C1022       C  0.87263636  0.46781832  0.19869387     0.79500
N1023       N  0.88996013  0.48659790  0.17586704    -0.78800
C1024       C  0.92358955  0.48172548  0.17180449     0.81900
N1025       N  0.93974869  0.45885104  0.19118025    -0.78800
C1026       C  0.92264844  0.43983158  0.21363319     0.82000
N1027       N  0.88919996  0.44494399  0.21802752    -0.80500
C1028       C  0.72169169  0.02298664  0.10359713     0.79500
N1029       N  0.74041630  0.04576430  0.08614022    -0.78800
C1030       C  0.73589017  0.04902756  0.05243890     0.81900
N1031       N  0.71327206  0.02906433  0.03636798    -0.78800
C1032       C  0.69415473  0.00678642  0.05364755     0.82000
N1033       N  0.69894053  0.50311864  0.08721359    -0.80500
C1034       C  0.62110802  0.01898080  0.25577423     0.79500
N1035       N  0.60386438  0.99942827  0.27801923    -0.78800
C1036       C  0.57022680  0.00384753  0.28205853     0.81900
N1037       N  0.55378811  0.02677215  0.26306012    -0.78800
C1038       C  0.57067856  0.04657580  0.24120457     0.82000
N1039       N  0.60435461  0.04246022  0.23723528    -0.80500
O1040       O  0.74475483  0.48936445  0.14639807    -0.79300
C1041       C  0.83764119  0.47598389  0.20660478     0.81800
O1042       O  0.71358117  0.41777995  0.23667332    -0.80400
O1043       O  0.78530696  0.49249637  0.30375970    -0.81900
O1044       O  0.74341951  0.07839623  0.23172482    -0.81700
O1045       O  0.72010439  0.03753633  0.16112318    -0.80300
Zn1046     Zn  0.76302129  0.46875293  0.18910113     1.55700
O1047       O  0.79104312  0.06200803  0.25682023    -0.81700
Cd1048     Cd  0.72201323  0.03466994  0.21309882     1.59700
Cd1049     Cd  0.71844083  0.46557551  0.25733492     1.59600
O1050       O  0.67289208  0.03261194  0.23003622    -0.81700
O1051       O  0.74797596  0.49426768  0.22814439    -1.92200
Cd1052     Cd  0.78792165  0.00978585  0.25483637     1.59900
O1053       O  0.67068810  0.48641539  0.26186974    -0.81600
O1054       O  0.83175521  0.49138004  0.23404045    -0.80300
C1055       C  0.72688174  0.40426161  0.21086770     0.82300
C1056       C  0.72928552  0.01640817  0.13892995     0.81900
O1057       O  0.81418352  0.46714647  0.18644971    -0.79200
C1058       C  0.77065432  0.08489607  0.24751357     0.82700
O1059       O  0.74622456  0.42069965  0.19130186    -0.79300
C1060       C  0.65690161  0.01244397  0.24913778     0.82900
C1061       C  0.76491756  0.47332023  0.31941024     0.83200
O1062       O  0.73887875  0.46065716  0.30527925    -0.81700
C1063       C  0.52623873  0.12059149  0.45174153     0.79500
N1064       N  0.54884303  0.13794924  0.47093126    -0.78800
C1065       C  0.55212821  0.17175777  0.46703480     0.81900
N1066       N  0.53237481  0.18807936  0.44460365    -0.78800
C1067       C  0.51021698  0.17094942  0.42506962     0.82000
N1068       N  0.50650466  0.13721954  0.42919384    -0.80500
C1069       C  0.62278116  0.46850691  0.00763933     0.79500
N1070       N  0.64011270  0.48741558  0.03048644    -0.78800
C1071       C  0.67376706  0.48276942  0.03458272     0.81900
N1072       N  0.68998270  0.45996419  0.01529049    -0.78800
C1073       C  0.67286938  0.44078005  0.49283342     0.82000
N1074       N  0.63934965  0.44567262  0.48834460    -0.80500
C1075       C  0.97196019  0.02194605  0.10332754     0.79500
N1076       N  0.94915280  0.50201717  0.11939782    -0.78800
C1077       C  0.94413846  0.00573147  0.15292560     0.81900
N1078       N  0.96313020  0.02811986  0.17044932    -0.78800
C1079       C  0.98579447  0.04812529  0.15467989     0.82000
N1080       N  0.99048019  0.04483354  0.12104885    -0.80500
C1081       C  0.97007030  0.36892731  0.00248973     0.79500
N1082       N  0.94783566  0.35124897  0.48312712    -0.78800
C1083       C  0.94392936  0.31762535  0.48783873     0.81100
N1084       N  0.96303523  0.30161135  0.01104446    -0.78800
C1085       C  0.98483839  0.31899706  0.03080564     0.82000
N1086       N  0.98872069  0.35265412  0.02624014    -0.80500
C1087       C  0.87085690  0.01908594  0.45127221     0.79500
N1088       N  0.85317852  0.99980570  0.42896267    -0.78800
C1089       C  0.81948114  0.00428711  0.42535850     0.81900
N1090       N  0.80342393  0.02705995  0.44481711    -0.78800
C1091       C  0.82079736  0.04667690  0.46670825     0.82000
N1092       N  0.85452321  0.04244833  0.47022988    -0.80500
C1093       C  0.52158583  0.46644428  0.35151649     0.79500
N1094       N  0.54552424  0.48459953  0.33498662    -0.78800
C1095       C  0.55003496  0.48020068  0.30149047     0.81900
N1096       N  0.53006018  0.45837508  0.28447256    -0.78800
C1097       C  0.50660553  0.43980318  0.30068797     0.82000
N1098       N  0.00187344  0.44420383  0.33418857    -0.80500
O1099       O  0.56445057  0.46704304  0.01960894    -0.79300
C1100       C  0.97958742  0.01569184  0.06795279     0.81800
O1101       O  0.96324157  0.41807548  0.46946211    -0.80400
O1102       O  0.92278142  0.03218300  0.47710641    -0.81900
O1103       O  0.53971542  0.06270611  0.44960660    -0.81700
O1104       O  0.58163792  0.49261022  0.47275335    -0.80300
Zn1105     Zn  0.51332589  0.46882015  0.01724057     1.55700
O1106       O  0.99243265  0.07838906  0.47541280    -0.81700
Cd1107     Cd  0.53754316  0.01045269  0.45179637     1.59700
Cd1108     Cd  0.96828915  0.46579436  0.44877436     1.59600
O1109       O  0.53520586  0.49279363  0.40300162    -0.81700
O1110       O  0.99792963  0.49437568  0.47831411    -1.92200
Cd1111     Cd  0.97187757  0.03437401  0.49388860     1.59900
O1112       O  0.98886947  0.46081059  0.40099045    -0.81600
O1113       O  0.97012474  0.03687421  0.04589655    -0.80300
C1114       C  0.97662602  0.40464708  0.49536453     0.82300
C1115       C  0.58773072  0.47653551  0.99976443     0.81900
O1116       O  0.49539579  0.48893064  0.06028006    -0.79200
C1117       C  0.51918995  0.08528440  0.45924801     0.82700
O1118       O  0.99626293  0.42103016  0.01484949    -0.79300
C1119       C  0.51495227  0.47345792  0.38716263     0.82900
C1120       C  0.90670384  0.01240163  0.45754973     0.83200
O1121       O  0.92045368  0.48670025  0.44418110    -0.81700
C1122       C  0.62528053  0.26847396  0.25684819     0.79500
N1123       N  0.64192387  0.29225816  0.23862012    -0.78800
C1124       C  0.67552599  0.29684305  0.24291456     0.81900
N1125       N  0.69255988  0.27714599  0.26478876    -0.78800
C1126       C  0.67621940  0.25390328  0.28352546     0.82000
N1127       N  0.64259464  0.24903213  0.27914617    -0.80500
C1128       C  0.87316821  0.21891926  0.20043887     0.79500
N1129       N  0.85548397  0.23765955  0.17789543    -0.78800
C1130       C  0.82165196  0.23341299  0.17501110     0.81900
N1131       N  0.80566073  0.21099972  0.19507780    -0.78800
C1132       C  0.82318329  0.19180074  0.21709919     0.82000
N1133       N  0.85691695  0.19633550  0.22039395    -0.80500
C1134       C  0.96913212  0.36954786  0.25266109     0.79500
N1135       N  0.98789599  0.38657736  0.27580829    -0.78800
C1136       C  0.98308365  0.42003972  0.28046076     0.81900
N1137       N  0.96080970  0.43665481  0.26078425    -0.78800
C1138       C  0.94199770  0.41995353  0.23767949     0.82000
N1139       N  0.94643921  0.38633914  0.23323685    -0.80500
C1140       C  0.52500650  0.11782685  0.20288052     0.79500
N1141       N  0.54739319  0.10042758  0.22213575    -0.78800
C1142       C  0.55103912  0.06674884  0.21766876     0.81900
N1143       N  0.53144796  0.05041683  0.19493680    -0.78800
C1144       C  0.50944871  0.06749633  0.17535375     0.82000
N1145       N  0.50594574  0.10122389  0.17951924    -0.80500
C1146       C  0.97301360  0.21694025  0.35344654     0.79500
N1147       N  0.99188735  0.19444945  0.37110914    -0.78800
C1148       C  0.98665587  0.19023828  0.40454119     0.81900
N1149       N  0.96348170  0.20935380  0.42041189    -0.78800
C1150       C  0.94422645  0.23145471  0.40308864     0.82000
N1151       N  0.94930191  0.23562636  0.36960995    -0.80500
C1152       C  0.52423448  0.27378741  0.10188508     0.79500
N1153       N  0.54674384  0.25431426  0.08509722    -0.78800
C1154       C  0.55079875  0.25820460  0.05148568     0.81900
N1155       N  0.53125090  0.28031909  0.03458088    -0.78800
C1156       C  0.50884355  0.29986713  0.05100630     0.82000
N1157       N  0.50494923  0.29634096  0.08474007    -0.80500
O1158       O  0.95740676  0.31120964  0.25495025    -0.79300
C1159       C  0.90866565  0.22637408  0.20664162     0.81800
O1160       O  0.50629611  0.20992679  0.30452423    -0.80400
O1161       O  0.49949359  0.16970244  0.18963522    -0.81900
O1162       O  0.52742921  0.28653497  0.15990420    -0.81700
O1163       O  0.00436065  0.32840228  0.22942607    -0.80300
Zn1164     Zn  0.95963461  0.26020889  0.25364485     1.55700
O1165       O  0.00045211  0.23975551  0.14380217    -0.81700
Cd1166     Cd  0.52524748  0.28420208  0.21208037     1.59700
Cd1167     Cd  0.52737317  0.21507575  0.25698136     1.59600
O1168       O  0.57394335  0.28179708  0.23017994    -0.81700
O1169       O  0.99836353  0.24467971  0.22807997    -1.92200
Cd1170     Cd  0.98263213  0.21872031  0.18780178     1.59900
O1171       O  0.57540700  0.23577606  0.26238086    -0.81600
O1172       O  0.93057055  0.21670966  0.18550681    -0.80300
C1173       C  0.98056295  0.22358803  0.31787365     0.82300
C1174       C  0.97722854  0.33449689  0.24521774     0.81900
O1175       O  0.91656152  0.24228369  0.23335227    -0.79200
C1176       C  0.51698302  0.26644834  0.13712498     0.82700
O1177       O  0.96153580  0.24348776  0.30148351    -0.79300
C1178       C  0.58953335  0.26173509  0.24971864     0.82900
C1179       C  0.51870459  0.15364332  0.20962968     0.83200
O1180       O  0.53174070  0.16735003  0.23568233    -0.81700
C1181       C  0.77356619  0.27207946  0.60540146     0.79500
N1182       N  0.79688835  0.25322313  0.62204131    -0.78800
C1183       C  0.80120514  0.25702160  0.65567246     0.81900
N1184       N  0.78182315  0.27914591  0.67265718    -0.78800
C1185       C  0.75911734  0.29857907  0.65631749     0.82000
N1186       N  0.75444358  0.29457848  0.62270392    -0.80500
C1187       C  0.72392221  0.21590133  0.85350948     0.79500
N1188       N  0.74308301  0.19321847  0.83657791    -0.78800
C1189       C  0.73877672  0.18920913  0.80292965     0.81900
N1190       N  0.71596044  0.20828777  0.78637212    -0.78800
C1191       C  0.69643740  0.23045349  0.80312691     0.82000
N1192       N  0.70098762  0.23491970  0.83664948    -0.80500
C1193       C  0.87354672  0.27033203  0.94903733     0.79500
N1194       N  0.89063719  0.29293286  0.96843974    -0.78800
C1195       C  0.92425970  0.29729208  0.96427262     0.81900
N1196       N  0.94091951  0.27797818  0.94184524    -0.78800
C1197       C  0.92419989  0.25545928  0.92232479     0.82000
N1198       N  0.89044459  0.25120015  0.92625167    -0.80500
C1199       C  0.71930898  0.37008394  0.95462384     0.79500
N1200       N  0.69702009  0.38723846  0.97408961    -0.78800
C1201       C  0.69219081  0.42069156  0.96908978     0.81900
N1202       N  0.71049721  0.43709101  0.94559714    -0.78800
C1203       C  0.73240634  0.42026255  0.92584970     0.82000
N1204       N  0.73720460  0.38678260  0.93067066    -0.80500
C1205       C  0.62187039  0.21965203  0.50610074     0.79500
N1206       N  0.60455568  0.23902973  0.52833715    -0.78800
C1207       C  0.57085707  0.23453507  0.53204615     0.81900
N1208       N  0.55444793  0.21166204  0.51271965    -0.78800
C1209       C  0.57149315  0.19195027  0.99093019     0.82000
N1210       N  0.60518847  0.19619199  0.98730862    -0.80500
C1211       C  0.77613265  0.11834832  0.50515675     0.79500
N1212       N  0.75627068  0.10187184  0.52764845    -0.78800
C1213       C  0.75971512  0.06818166  0.53205538     0.81900
N1214       N  0.78178157  0.05091485  0.51284161    -0.78800
C1215       C  0.80172618  0.06706832  0.99048467     0.82000
N1216       N  0.79865200  0.10086151  0.98630721    -0.80500
O1217       O  0.81498991  0.27292050  0.93758647    -0.79300
C1218       C  0.73079094  0.22285407  0.88892792     0.81800
O1219       O  0.71381153  0.32082487  0.98771647    -0.80400
O1220       O  0.67323498  0.20693053  0.97956728    -0.81900
O1221       O  0.79020010  0.17623959  0.50698443    -0.81700
O1222       O  0.83242549  0.24603438  0.98367859    -0.80300
Zn1223     Zn  0.76378105  0.27078247  0.93974153     1.55700
O1224       O  0.74245400  0.16059376  0.98145339    -0.81700
Cd1225     Cd  0.78835465  0.22850653  0.50485650     1.59700
Cd1226     Cd  0.71946724  0.27316645  0.50821442     1.59600
O1227       O  0.78660946  0.24599468  0.55376242    -0.81700
O1228       O  0.74864259  0.24479254  0.97847815    -1.92200
Cd1229     Cd  0.72225985  0.20469177  0.96290751     1.59900
O1230       O  0.74070085  0.27820180  0.55586320    -0.81600
O1231       O  0.72092406  0.20189667  0.91099582    -0.80300
C1232       C  0.72659392  0.33450124  0.96171627     0.82300
C1233       C  0.83841413  0.26262977  0.95698043     0.81900
O1234       O  0.74636564  0.24992158  0.89661121    -0.79200
C1235       C  0.76936601  0.15365960  0.99747428     0.82700
O1236       O  0.74611167  0.31845831  0.94206765    -0.79300
C1237       C  0.76672485  0.26536431  0.56966336     0.82900
C1238       C  0.65763895  0.22640927  0.49956480     0.83200
O1239       O  0.67178453  0.25192108  0.51318762    -0.81700
C1240       C  0.77817653  0.12005651  0.75545014     0.79500
N1241       N  0.75875864  0.13648551  0.77823773    -0.78800
C1242       C  0.76276438  0.17008101  0.78299423     0.81900
N1243       N  0.78487865  0.18738416  0.76376090    -0.78800
C1244       C  0.80434445  0.17130816  0.74103913     0.82000
N1245       N  0.80072545  0.13756305  0.73651492    -0.80500
C1246       C  0.72059834  0.36836078  0.70408184     0.79500
N1247       N  0.69857225  0.35082241  0.72362013    -0.78800
C1248       C  0.69489431  0.31710989  0.71932944     0.81900
N1249       N  0.71393557  0.30087706  0.69640990    -0.78800
C1250       C  0.73553853  0.31803404  0.67652664     0.82000
N1251       N  0.73925792  0.35181672  0.68062402    -0.80500
C1252       C  0.77124665  0.46651011  0.85519586     0.79500
N1253       N  0.75153837  0.44420056  0.87224362    -0.78800
C1254       C  0.75598249  0.43999819  0.90584803     0.81900
N1255       N  0.77909924  0.45891489  0.92241697    -0.78800
C1256       C  0.79902696  0.48083025  0.90569528     0.82000
N1257       N  0.79489991  0.48494336  0.87209029    -0.80500
C1258       C  0.87263632  0.46781837  0.69869386     0.79500
N1259       N  0.88996008  0.48659785  0.67586700    -0.78800
C1260       C  0.92358948  0.48172553  0.67180444     0.81900
N1261       N  0.93974869  0.45885109  0.69118031    -0.78800
C1262       C  0.92264842  0.43983168  0.71363319     0.82000
N1263       N  0.88920000  0.44494401  0.71802757    -0.80500
C1264       C  0.72169171  0.02298669  0.60359710     0.79500
N1265       N  0.74041624  0.04576437  0.58614020    -0.78800
C1266       C  0.73589015  0.04902758  0.55243886     0.81900
N1267       N  0.71327203  0.02906431  0.53636795    -0.78800
C1268       C  0.69415466  0.00678646  0.55364753     0.82000
N1269       N  0.69894061  0.50311857  0.58721357    -0.80500
C1270       C  0.62110810  0.01898089  0.75577411     0.79500
N1271       N  0.60386433  0.99942821  0.77801927    -0.78800
C1272       C  0.57022692  0.00384763  0.78205851     0.81900
N1273       N  0.55378812  0.02677222  0.76306019    -0.78800
C1274       C  0.57067871  0.04657585  0.74120457     0.82000
N1275       N  0.60435460  0.04246016  0.73723529    -0.80500
O1276       O  0.74475479  0.48936457  0.64639810    -0.79300
C1277       C  0.83764119  0.47598384  0.70660475     0.81800
O1278       O  0.71358129  0.41777988  0.73667337    -0.80400
O1279       O  0.78530702  0.49249640  0.80375970    -0.81900
O1280       O  0.74341941  0.07839632  0.73172480    -0.81700
O1281       O  0.72010426  0.03753630  0.66112318    -0.80300
Zn1282     Zn  0.76302140  0.46875303  0.68910111     1.55700
O1283       O  0.79104300  0.06200804  0.75682022    -0.81700
Cd1284     Cd  0.72201313  0.03467004  0.71309881     1.59700
Cd1285     Cd  0.71844079  0.46557541  0.75733490     1.59600
O1286       O  0.67289203  0.03261203  0.73003618    -0.81700
O1287       O  0.74797601  0.49426772  0.72814440    -1.92200
Cd1288     Cd  0.78792158  0.00978577  0.75483636     1.59900
O1289       O  0.67068812  0.48641529  0.76186972    -0.81600
O1290       O  0.83175519  0.49138008  0.73404039    -0.80300
C1291       C  0.72688178  0.40426163  0.71086771     0.82300
C1292       C  0.72928549  0.01640814  0.63892993     0.81900
O1293       O  0.81418356  0.46714636  0.68644970    -0.79200
C1294       C  0.77065421  0.08489613  0.74751357     0.82700
O1295       O  0.74622454  0.42069977  0.69130181    -0.79300
C1296       C  0.65690156  0.01244387  0.74913785     0.82900
C1297       C  0.76491749  0.47332031  0.81941024     0.83200
O1298       O  0.73887872  0.46065730  0.80527925    -0.81700
C1299       C  0.52623885  0.12059158  0.95174147     0.79500
N1300       N  0.54884309  0.13794911  0.97093119    -0.78800
C1301       C  0.55212820  0.17175788  0.96703484     0.81900
N1302       N  0.53237476  0.18807927  0.94460367    -0.78800
C1303       C  0.51021701  0.17094953  0.92506967     0.82000
N1304       N  0.50650464  0.13721944  0.92919385    -0.80500
C1305       C  0.62278108  0.46850696  0.50763935     0.79500
N1306       N  0.64011280  0.48741559  0.53048656    -0.78800
C1307       C  0.67376697  0.48276938  0.53458276     0.81900
N1308       N  0.68998277  0.45996415  0.51529055    -0.78800
C1309       C  0.67286946  0.44078004  0.99283344     0.82000
N1310       N  0.63934957  0.44567251  0.98834461    -0.80500
C1311       C  0.97196001  0.02194601  0.60332753     0.79500
N1312       N  0.94915283  0.50201705  0.61939782    -0.78800
C1313       C  0.94413834  0.00573140  0.65292556     0.81900
N1314       N  0.96313018  0.02811992  0.67044932    -0.78800
C1315       C  0.98579432  0.04812518  0.65467988     0.82000
N1316       N  0.99048015  0.04483361  0.62104888    -0.80500
C1317       C  0.97007025  0.36892737  0.50248979     0.79500
N1318       N  0.94783574  0.35124894  0.98312714    -0.78800
C1319       C  0.94392932  0.31762532  0.98783873     0.81100
N1320       N  0.96303520  0.30161139  0.51104444    -0.78800
C1321       C  0.98483841  0.31899713  0.53080567     0.82000
N1322       N  0.98872062  0.35265418  0.52624011    -0.80500
C1323       C  0.87085687  0.01908586  0.95127232     0.79500
N1324       N  0.85317853  0.99980564  0.92896269    -0.78800
C1325       C  0.81948118  0.00428713  0.92535847     0.81900
N1326       N  0.80342391  0.02705997  0.94481703    -0.78800
C1327       C  0.82079737  0.04667690  0.96670823     0.82000
N1328       N  0.85452315  0.04244824  0.97022992    -0.80500
C1329       C  0.52158589  0.46644419  0.85151649     0.79500
N1330       N  0.54552425  0.48459942  0.83498666    -0.78800
C1331       C  0.55003497  0.48020067  0.80149044     0.81900
N1332       N  0.53006008  0.45837510  0.78447256    -0.78800
C1333       C  0.50660552  0.43980322  0.80068796     0.82000
N1334       N  0.00187354  0.44420369  0.83418856    -0.80500
O1335       O  0.56445050  0.46704300  0.51960891    -0.79300
C1336       C  0.97958737  0.01569190  0.56795282     0.81800
O1337       O  0.96324171  0.41807543  0.96946207    -0.80400
O1338       O  0.92278129  0.03218301  0.97710662    -0.81900
O1339       O  0.53971550  0.06270611  0.94960663    -0.81700
O1340       O  0.58163796  0.49261025  0.97275336    -0.80300
Zn1341     Zn  0.51332583  0.46882023  0.51724056     1.55700
O1342       O  0.99243255  0.07838912  0.97541278    -0.81700
Cd1343     Cd  0.53754327  0.01045275  0.95179636     1.59700
Cd1344     Cd  0.96828909  0.46579444  0.94877436     1.59600
O1345       O  0.53520600  0.49279353  0.90300161    -0.81700
O1346       O  0.99792974  0.49437569  0.97831408    -1.92200
Cd1347     Cd  0.97187748  0.03437411  0.99388861     1.59900
O1348       O  0.98886941  0.46081064  0.90099046    -0.81600
O1349       O  0.97012461  0.03687409  0.54589654    -0.80300
C1350       C  0.97662618  0.40464699  0.99536453     0.82300
C1351       C  0.58773073  0.47653554  0.49976447     0.81900
O1352       O  0.49539595  0.48893070  0.56028007    -0.79200
C1353       C  0.51919002  0.08528433  0.95924800     0.82700
O1354       O  0.99626285  0.42103025  0.51484948    -0.79300
C1355       C  0.51495234  0.47345790  0.88716263     0.82900
C1356       C  0.90670382  0.01240160  0.95754986     0.83200
O1357       O  0.92045358  0.48670015  0.94418106    -0.81700
C1358       C  0.62528058  0.26847386  0.75684829     0.79500
N1359       N  0.64192379  0.29225826  0.73862020    -0.78800
C1360       C  0.67552606  0.29684301  0.74291472     0.81900
N1361       N  0.69255981  0.27714601  0.76478878    -0.78800
C1362       C  0.67621942  0.25390319  0.78352554     0.82000
N1363       N  0.64259457  0.24903206  0.77914608    -0.80500
C1364       C  0.87316819  0.21891940  0.70043889     0.79500
N1365       N  0.85548390  0.23765967  0.67789542    -0.78800
C1366       C  0.82165192  0.23341306  0.67501110     0.81900
N1367       N  0.80566069  0.21099981  0.69507780    -0.78800
C1368       C  0.82318330  0.19180079  0.71709918     0.82000
N1369       N  0.85691694  0.19633560  0.72039393    -0.80500
C1370       C  0.96913209  0.36954772  0.75266104     0.79500
N1371       N  0.98789606  0.38657737  0.77580827    -0.78800
C1372       C  0.98308372  0.42003958  0.78046070     0.81900
N1373       N  0.96080979  0.43665482  0.76078424    -0.78800
C1374       C  0.94199774  0.41995343  0.73767946     0.82000
N1375       N  0.94643918  0.38633918  0.73323688    -0.80500
C1376       C  0.52500640  0.11782695  0.70288050     0.79500
N1377       N  0.54739331  0.10042752  0.72213573    -0.78800
C1378       C  0.55103915  0.06674896  0.71766871     0.81900
N1379       N  0.53144804  0.05041674  0.69493691    -0.78800
C1380       C  0.50944867  0.06749642  0.67535378     0.82000
N1381       N  0.50594574  0.10122373  0.67951930    -0.80500
C1382       C  0.97301376  0.21694025  0.85344659     0.79500
N1383       N  0.99188746  0.19444958  0.87110923    -0.78800
C1384       C  0.98665601  0.19023830  0.90454123     0.81900
N1385       N  0.96348171  0.20935391  0.92041195    -0.78800
C1386       C  0.94422651  0.23145475  0.90308865     0.82000
N1387       N  0.94930194  0.23562639  0.86960999    -0.80500
C1388       C  0.52423443  0.27378747  0.60188516     0.79500
N1389       N  0.54674382  0.25431421  0.58509725    -0.78800
C1390       C  0.55079869  0.25820455  0.55148576     0.81900
N1391       N  0.53125095  0.28031912  0.53458094    -0.78800
C1392       C  0.50884352  0.29986713  0.55100636     0.82000
N1393       N  0.50494921  0.29634093  0.58474010    -0.80500
O1394       O  0.95740685  0.31120952  0.75495029    -0.79300
C1395       C  0.90866566  0.22637416  0.70664158     0.81800
O1396       O  0.50629607  0.20992666  0.80452425    -0.80400
O1397       O  0.49949346  0.16970242  0.68963519    -0.81900
O1398       O  0.52742928  0.28653501  0.65990422    -0.81700
O1399       O  0.00436064  0.32840229  0.72942603    -0.80300
Zn1400     Zn  0.95963472  0.26020879  0.75364487     1.55700
O1401       O  0.00045223  0.23975558  0.64380220    -0.81700
Cd1402     Cd  0.52524740  0.28420215  0.71208036     1.59700
Cd1403     Cd  0.52737309  0.21507566  0.75698135     1.59600
O1404       O  0.57394329  0.28179699  0.73017998    -0.81700
O1405       O  0.99836358  0.24467972  0.72807999    -1.92200
Cd1406     Cd  0.98263224  0.21872038  0.68780176     1.59900
O1407       O  0.57540702  0.23577593  0.76238084    -0.81600
O1408       O  0.93057055  0.21670959  0.68550681    -0.80300
C1409       C  0.98056288  0.22358802  0.81787369     0.82300
C1410       C  0.97722859  0.33449690  0.74521772     0.81900
O1411       O  0.91656160  0.24228378  0.73335221    -0.79200
C1412       C  0.51698299  0.26644833  0.63712496     0.82700
O1413       O  0.96153575  0.24348769  0.80148360    -0.79300
C1414       C  0.58953329  0.26173508  0.74971857     0.82900
C1415       C  0.51870453  0.15364322  0.70962968     0.83200
O1416       O  0.53174061  0.16735003  0.73568229    -0.81700
C1417       C  0.77356622  0.77207931  0.10540148     0.79500
N1418       N  0.79688837  0.75322303  0.12204146    -0.78800
C1419       C  0.80120518  0.75702150  0.15567248     0.81900
N1420       N  0.78182325  0.77914592  0.17265732    -0.78800
C1421       C  0.75911744  0.79857906  0.15631749     0.82000
N1422       N  0.75444361  0.79457839  0.12270409    -0.80500
C1423       C  0.72392206  0.71590134  0.35350949     0.79500
N1424       N  0.74308284  0.69321850  0.33657802    -0.78800
C1425       C  0.73877661  0.68920915  0.30292969     0.81900
N1426       N  0.71596043  0.70828785  0.28637216    -0.78800
C1427       C  0.69643739  0.73045353  0.30312688     0.82000
N1428       N  0.70098746  0.73491976  0.33664952    -0.80500
C1429       C  0.87354678  0.77033208  0.44903738     0.79500
N1430       N  0.89063723  0.79293295  0.46843975    -0.78800
C1431       C  0.92425977  0.79729209  0.46427266     0.81900
N1432       N  0.94091956  0.77797812  0.44184529    -0.78800
C1433       C  0.92419994  0.75545926  0.42232488     0.82000
N1434       N  0.89044460  0.75120016  0.42625179    -0.80500
C1435       C  0.71930899  0.87008404  0.45462386     0.79500
N1436       N  0.69702003  0.88723852  0.47408969    -0.78800
C1437       C  0.69219086  0.92069170  0.46908983     0.81900
N1438       N  0.71049727  0.93709108  0.44559729    -0.78800
C1439       C  0.73240643  0.92026265  0.42584977     0.82000
N1440       N  0.73720461  0.88678264  0.43067083    -0.80500
C1441       C  0.62187047  0.71965203  0.00610074     0.79500
N1442       N  0.60455571  0.73902980  0.02833733    -0.78800
C1443       C  0.57085712  0.73453509  0.03204618     0.81900
N1444       N  0.55444799  0.71166212  0.01271976    -0.78800
C1445       C  0.57149306  0.69195031  0.49093034     0.82000
N1446       N  0.60518845  0.69619211  0.48730874    -0.80500
C1447       C  0.77613247  0.61834833  0.00515676     0.79500
N1448       N  0.75627053  0.60187176  0.02764839    -0.78800
C1449       C  0.75971498  0.56818166  0.03205536     0.81900
N1450       N  0.78178158  0.55091481  0.01284156    -0.78800
C1451       C  0.80172603  0.56706834  0.49048456     0.82000
N1452       N  0.79865188  0.60086142  0.48630709    -0.80500
O1453       O  0.81498997  0.77292054  0.43758649    -0.79300
C1454       C  0.73079084  0.72285414  0.38892797     0.81800
O1455       O  0.71381157  0.82082494  0.48771655    -0.80400
O1456       O  0.67323486  0.70693059  0.47956731    -0.81900
O1457       O  0.79020006  0.67623960  0.00698441    -0.81700
O1458       O  0.83242548  0.74603438  0.48367861    -0.80300
Zn1459     Zn  0.76378110  0.77078253  0.43974155     1.55700
O1460       O  0.74245396  0.66059379  0.48145336    -0.81700
Cd1461     Cd  0.78835465  0.72850658  0.00485651     1.59700
Cd1462     Cd  0.71946727  0.77316653  0.00821463     1.59600
O1463       O  0.78660936  0.74599456  0.05376245    -0.81700
O1464       O  0.74864252  0.74479253  0.47847820    -1.92200
Cd1465     Cd  0.72225968  0.70469184  0.46290753     1.59900
O1466       O  0.74070093  0.77820193  0.05586329    -0.81600
O1467       O  0.72092399  0.70189671  0.41099585    -0.80300
C1468       C  0.72659390  0.83450130  0.46171642     0.82300
C1469       C  0.83841416  0.76262979  0.45698050     0.81900
O1470       O  0.74636567  0.74992157  0.39661122    -0.79200
C1471       C  0.76936599  0.65365954  0.49747429     0.82700
O1472       O  0.74611171  0.81845840  0.44206771    -0.79300
C1473       C  0.76672485  0.76536430  0.06966347     0.82900
C1474       C  0.65763897  0.72640942  0.99956494     0.83200
O1475       O  0.67178456  0.75192114  0.01318770    -0.81700
C1476       C  0.77817642  0.62005645  0.25545009     0.79500
N1477       N  0.75875845  0.63648551  0.27823774    -0.78800
C1478       C  0.76276432  0.67008093  0.28299429     0.81900
N1479       N  0.78487867  0.68738410  0.26376111    -0.78800
C1480       C  0.80434442  0.67130804  0.24103918     0.82000
N1481       N  0.80072528  0.63756302  0.23651495    -0.80500
C1482       C  0.72059833  0.86836077  0.20408195     0.79500
N1483       N  0.69857227  0.85082247  0.22362013    -0.78800
C1484       C  0.69489424  0.81710992  0.21932943     0.81900
N1485       N  0.71393558  0.80087713  0.19640990    -0.78800
C1486       C  0.73553855  0.81803404  0.17652673     0.82000
N1487       N  0.73925798  0.85181677  0.18062405    -0.80500
C1488       C  0.77124660  0.96651009  0.35519596     0.79500
N1489       N  0.75153844  0.94420062  0.37224368    -0.78800
C1490       C  0.75598251  0.93999815  0.40584813     0.81900
N1491       N  0.77909929  0.95891498  0.42241706    -0.78800
C1492       C  0.79902691  0.98083028  0.40569537     0.82000
N1493       N  0.79489994  0.98494346  0.37209036    -0.80500
C1494       C  0.87263637  0.96781835  0.19869386     0.79500
N1495       N  0.88996017  0.98659790  0.17586702    -0.78800
C1496       C  0.92358952  0.98172557  0.17180447     0.81900
N1497       N  0.93974874  0.95885106  0.19118027    -0.78800
C1498       C  0.92264846  0.93983172  0.21363315     0.82000
N1499       N  0.88920005  0.94494405  0.21802759    -0.80500
C1500       C  0.72169166  0.52298661  0.10359700     0.79500
N1501       N  0.74041627  0.54576423  0.08614006    -0.78800
C1502       C  0.73589007  0.54902751  0.05243875     0.81900
N1503       N  0.71327190  0.52906436  0.03636785    -0.78800
C1504       C  0.69415456  0.50678643  0.05364742     0.82000
N1505       N  0.69894063  0.00311862  0.08721370    -0.80500
C1506       C  0.62110792  0.51898084  0.25577414     0.79500
N1507       N  0.60386427  0.49942820  0.27801922    -0.78800
C1508       C  0.57022674  0.50384766  0.28205852     0.81900
N1509       N  0.55378808  0.52677226  0.26306023    -0.78800
C1510       C  0.57067852  0.54657591  0.24120455     0.82000
N1511       N  0.60435455  0.54246019  0.23723530    -0.80500
O1512       O  0.74475483  0.98936443  0.14639812    -0.79300
C1513       C  0.83764124  0.97598384  0.20660475     0.81800
O1514       O  0.71358138  0.91777988  0.23667348    -0.80400
O1515       O  0.78530707  0.99249633  0.30375972    -0.81900
O1516       O  0.74341934  0.57839619  0.23172483    -0.81700
O1517       O  0.72010432  0.53753631  0.16112307    -0.80300
Zn1518     Zn  0.76302145  0.96875288  0.18910112     1.55700
O1519       O  0.79104301  0.56200807  0.25682020    -0.81700
Cd1520     Cd  0.72201313  0.53466991  0.21309864     1.59700
Cd1521     Cd  0.71844085  0.96557546  0.25733493     1.59600
O1522       O  0.67289191  0.53261202  0.23003618    -0.81700
O1523       O  0.74797613  0.99426765  0.22814444    -1.92200
Cd1524     Cd  0.78792142  0.50978583  0.25483637     1.59900
O1525       O  0.67068820  0.98641534  0.26186978    -0.81600
O1526       O  0.83175526  0.99138000  0.23404044    -0.80300
C1527       C  0.72688187  0.90426161  0.21086775     0.82300
C1528       C  0.72928550  0.51640816  0.13892985     0.81900
O1529       O  0.81418361  0.96714642  0.18644967    -0.79200
C1530       C  0.77065416  0.58489608  0.24751360     0.82700
O1531       O  0.74622458  0.92069966  0.19130187    -0.79300
C1532       C  0.65690148  0.51244393  0.24913779     0.82900
C1533       C  0.76491759  0.97332033  0.31941025     0.83200
O1534       O  0.73887877  0.96065722  0.30527929    -0.81700
C1535       C  0.52623882  0.62059157  0.45174156     0.79500
N1536       N  0.54884314  0.63794916  0.47093129    -0.78800
C1537       C  0.55212820  0.67175786  0.46703501     0.81900
N1538       N  0.53237473  0.68807934  0.44460385    -0.78800
C1539       C  0.51021702  0.67094956  0.42506983     0.82000
N1540       N  0.50650464  0.63721952  0.42919402    -0.80500
C1541       C  0.62278115  0.96850706  0.00763942     0.79500
N1542       N  0.64011289  0.98741568  0.03048661    -0.78800
C1543       C  0.67376705  0.98276947  0.03458286     0.81900
N1544       N  0.68998285  0.95996422  0.01529059    -0.78800
C1545       C  0.67286947  0.94078013  0.49283352     0.82000
N1546       N  0.63934963  0.94567256  0.48834476    -0.80500
C1547       C  0.97196004  0.52194612  0.10332753     0.79500
N1548       N  0.94915296  0.00201701  0.11939785    -0.78800
C1549       C  0.94413839  0.50573144  0.15292556     0.81900
N1550       N  0.96313021  0.52811982  0.17044934    -0.78800
C1551       C  0.98579436  0.54812528  0.15467988     0.82000
N1552       N  0.99048011  0.54483363  0.12104889    -0.80500
C1553       C  0.97007028  0.86892739  0.00248976     0.79500
N1554       N  0.94783579  0.85124892  0.48312712    -0.78800
C1555       C  0.94392933  0.81762537  0.48783874     0.81100
N1556       N  0.96303522  0.80161140  0.01104451    -0.78800
C1557       C  0.98483834  0.81899714  0.03080570     0.82000
N1558       N  0.98872065  0.85265418  0.02624019    -0.80500
C1559       C  0.87085683  0.51908590  0.45127226     0.79500
N1560       N  0.85317846  0.49980561  0.42896265    -0.78800
C1561       C  0.81948109  0.50428712  0.42535844     0.81900
N1562       N  0.80342384  0.52705990  0.44481700    -0.78800
C1563       C  0.82079731  0.54667686  0.46670816     0.82000
N1564       N  0.85452306  0.54244828  0.47022985    -0.80500
C1565       C  0.52158598  0.96644428  0.35151650     0.79500
N1566       N  0.54552427  0.98459944  0.33498662    -0.78800
C1567       C  0.55003508  0.98020063  0.30149043     0.81900
N1568       N  0.53006017  0.95837501  0.28447257    -0.78800
C1569       C  0.50660555  0.93980327  0.30068797     0.82000
N1570       N  0.00187358  0.94420379  0.33418857    -0.80500
O1571       O  0.56445057  0.96704306  0.01960891    -0.79300
C1572       C  0.97958737  0.51569194  0.06795283     0.81800
O1573       O  0.96324173  0.91807545  0.46946207    -0.80400
O1574       O  0.92278129  0.53218315  0.47710639    -0.81900
O1575       O  0.53971535  0.56270608  0.44960662    -0.81700
O1576       O  0.58163796  0.99261034  0.47275342    -0.80300
Zn1577     Zn  0.51332588  0.96882012  0.01724053     1.55700
O1578       O  0.99243258  0.57838917  0.47541281    -0.81700
Cd1579     Cd  0.53754311  0.51045265  0.45179637     1.59700
Cd1580     Cd  0.96828914  0.96579433  0.44877436     1.59600
O1581       O  0.53520606  0.99279356  0.40300163    -0.81700
O1582       O  0.99792983  0.99437559  0.47831406    -1.92200
Cd1583     Cd  0.97187733  0.53437419  0.49388860     1.59900
O1584       O  0.98886949  0.96081066  0.40099045    -0.81600
O1585       O  0.97012467  0.53687417  0.04589655    -0.80300
C1586       C  0.97662621  0.90464701  0.49536457     0.82300
C1587       C  0.58773082  0.97653562  0.99976449     0.81900
O1588       O  0.49539589  0.98893063  0.06027996    -0.79200
C1589       C  0.51918995  0.58528439  0.45924804     0.82700
O1590       O  0.99626289  0.92103026  0.01484948    -0.79300
C1591       C  0.51495235  0.97345788  0.38716263     0.82900
C1592       C  0.90670377  0.51240163  0.45754971     0.83200
O1593       O  0.92045366  0.98670017  0.44418106    -0.81700
C1594       C  0.62528044  0.76847396  0.25684822     0.79500
N1595       N  0.64192380  0.79225831  0.23862025    -0.78800
C1596       C  0.67552593  0.79684312  0.24291468     0.81900
N1597       N  0.69255983  0.77714607  0.26478880    -0.78800
C1598       C  0.67621933  0.75390327  0.28352549     0.82000
N1599       N  0.64259462  0.74903210  0.27914612    -0.80500
C1600       C  0.87316811  0.71891930  0.20043905     0.79500
N1601       N  0.85548389  0.73765961  0.17789561    -0.78800
C1602       C  0.82165188  0.73341295  0.17501123     0.81900
N1603       N  0.80566068  0.71099967  0.19507782    -0.78800
C1604       C  0.82318322  0.69180065  0.21709926     0.82000
N1605       N  0.85691689  0.69633546  0.22039403    -0.80500
C1606       C  0.96913210  0.86954778  0.25266125     0.79500
N1607       N  0.98789593  0.88657745  0.27580836    -0.78800
C1608       C  0.98308378  0.92003968  0.28046076     0.81900
N1609       N  0.96080985  0.93665493  0.26078410    -0.78800
C1610       C  0.94199786  0.91995350  0.23767949     0.82000
N1611       N  0.94643916  0.88633926  0.23323688    -0.80500
C1612       C  0.52500644  0.61782687  0.20288060     0.79500
N1613       N  0.54739309  0.60042759  0.22213567    -0.78800
C1614       C  0.55103911  0.56674888  0.21766877     0.81900
N1615       N  0.53144790  0.55041682  0.19493678    -0.78800
C1616       C  0.50944866  0.56749635  0.17535381     0.82000
N1617       N  0.50594555  0.60122382  0.17951925    -0.80500
C1618       C  0.97301365  0.71694032  0.35344659     0.79500
N1619       N  0.99188746  0.69444952  0.37110935    -0.78800
C1620       C  0.98665594  0.69023831  0.40454123     0.81900
N1621       N  0.96348164  0.70935382  0.42041202    -0.78800
C1622       C  0.94422639  0.73145469  0.40308866     0.82000
N1623       N  0.94930189  0.73562630  0.36961005    -0.80500
C1624       C  0.52423443  0.77378750  0.10188525     0.79500
N1625       N  0.54674381  0.75431422  0.08509733    -0.78800
C1626       C  0.55079865  0.75820457  0.05148589     0.81900
N1627       N  0.53125083  0.78031908  0.03458103    -0.78800
C1628       C  0.50884348  0.79986714  0.05100647     0.82000
N1629       N  0.50494920  0.79634098  0.08474022    -0.80500
O1630       O  0.95740671  0.81120962  0.25495046    -0.79300
C1631       C  0.90866557  0.72637405  0.20664167     0.81800
O1632       O  0.50629605  0.70992677  0.30452432    -0.80400
O1633       O  0.49949350  0.66970242  0.18963524    -0.81900
O1634       O  0.52742920  0.78653501  0.15990430    -0.81700
O1635       O  0.00436060  0.82840232  0.22942629    -0.80300
Zn1636     Zn  0.95963457  0.76020885  0.25364489     1.55700
O1637       O  0.00045202  0.73975559  0.14380223    -0.81700
Cd1638     Cd  0.52524741  0.78420222  0.21208040     1.59700
Cd1639     Cd  0.52737312  0.71507570  0.25698154     1.59600
O1640       O  0.57394321  0.78179705  0.23017998    -0.81700
O1641       O  0.99836353  0.74467970  0.22808000    -1.92200
Cd1642     Cd  0.98263206  0.71872027  0.18780178     1.59900
O1643       O  0.57540696  0.73577600  0.26238088    -0.81600
O1644       O  0.93057039  0.71670961  0.18550681    -0.80300
C1645       C  0.98056294  0.72358804  0.31787378     0.82300
C1646       C  0.97722847  0.83449696  0.24521796     0.81900
O1647       O  0.91656151  0.74228367  0.23335231    -0.79200
C1648       C  0.51698299  0.76644835  0.13712508     0.82700
O1649       O  0.96153575  0.74348778  0.30148362    -0.79300
C1650       C  0.58953328  0.76173505  0.24971865     0.82900
C1651       C  0.51870442  0.65364327  0.20962961     0.83200
O1652       O  0.53174061  0.66735001  0.23568238    -0.81700
C1653       C  0.77356613  0.77207945  0.60540148     0.79500
N1654       N  0.79688836  0.75322307  0.62204146    -0.78800
C1655       C  0.80120509  0.75702155  0.65567248     0.81900
N1656       N  0.78182319  0.77914588  0.67265733    -0.78800
C1657       C  0.75911741  0.79857912  0.65631751     0.82000
N1658       N  0.75444362  0.79457845  0.62270409    -0.80500
C1659       C  0.72392219  0.71590142  0.85350947     0.79500
N1660       N  0.74308292  0.69321846  0.83657799    -0.78800
C1661       C  0.73877659  0.68920909  0.80292967     0.81900
N1662       N  0.71596034  0.70828777  0.78637220    -0.78800
C1663       C  0.69643734  0.73045353  0.80312693     0.82000
N1664       N  0.70098764  0.73491981  0.83664954    -0.80500
C1665       C  0.87354674  0.77033209  0.94903742     0.79500
N1666       N  0.89063713  0.79293286  0.96843985    -0.78800
C1667       C  0.92425970  0.79729217  0.96427270     0.81900
N1668       N  0.94091946  0.77797820  0.94184529    -0.78800
C1669       C  0.92419995  0.75545929  0.92232502     0.82000
N1670       N  0.89044454  0.75120011  0.92625184    -0.80500
C1671       C  0.71930911  0.87008407  0.95462374     0.79500
N1672       N  0.69702010  0.88723845  0.97408977    -0.78800
C1673       C  0.69219095  0.92069170  0.96908977     0.81900
N1674       N  0.71049721  0.93709099  0.94559731    -0.78800
C1675       C  0.73240648  0.92026270  0.92584971     0.82000
N1676       N  0.73720460  0.88678255  0.93067082    -0.80500
C1677       C  0.62187038  0.71965201  0.50610078     0.79500
N1678       N  0.60455568  0.73902983  0.52833728    -0.78800
C1679       C  0.57085707  0.73453520  0.53204616     0.81900
N1680       N  0.55444790  0.71166225  0.51271974    -0.78800
C1681       C  0.57149318  0.69195026  0.99093031     0.82000
N1682       N  0.60518854  0.69619215  0.98730869    -0.80500
C1683       C  0.77613244  0.61834829  0.50515677     0.79500
N1684       N  0.75627061  0.60187179  0.52764840    -0.78800
C1685       C  0.75971499  0.56818162  0.53205538     0.81900
N1686       N  0.78178153  0.55091479  0.51284152    -0.78800
C1687       C  0.80172606  0.56706841  0.99048457     0.82000
N1688       N  0.79865183  0.60086147  0.98630712    -0.80500
O1689       O  0.81498988  0.77292046  0.93758649    -0.79300
C1690       C  0.73079094  0.72285412  0.88892795     0.81800
O1691       O  0.71381152  0.82082500  0.98771653    -0.80400
O1692       O  0.67323496  0.70693055  0.97956731    -0.81900
O1693       O  0.79020007  0.67623953  0.50698444    -0.81700
O1694       O  0.83242545  0.74603434  0.98367859    -0.80300
Zn1695     Zn  0.76378102  0.77078243  0.93974154     1.55700
O1696       O  0.74245394  0.66059378  0.98145338    -0.81700
Cd1697     Cd  0.78835460  0.72850647  0.50485650     1.59700
Cd1698     Cd  0.71946721  0.77316642  0.50821461     1.59600
O1699       O  0.78660944  0.74599462  0.55376246    -0.81700
O1700       O  0.74864253  0.74479261  0.97847822    -1.92200
Cd1701     Cd  0.72225980  0.70469192  0.96290752     1.59900
O1702       O  0.74070099  0.77820198  0.55586323    -0.81600
O1703       O  0.72092396  0.70189682  0.91099583    -0.80300
C1704       C  0.72659382  0.83450122  0.96171646     0.82300
C1705       C  0.83841407  0.76262976  0.95698047     0.81900
O1706       O  0.74636580  0.74992157  0.89661120    -0.79200
C1707       C  0.76936592  0.65365956  0.99747430     0.82700
O1708       O  0.74611162  0.81845827  0.94206768    -0.79300
C1709       C  0.76672499  0.76536431  0.56966343     0.82900
C1710       C  0.65763890  0.72640940  0.49956492     0.83200
O1711       O  0.67178445  0.75192116  0.51318770    -0.81700
C1712       C  0.77817644  0.62005644  0.75545015     0.79500
N1713       N  0.75875855  0.63648548  0.77823773    -0.78800
C1714       C  0.76276426  0.67008094  0.78299429     0.81900
N1715       N  0.78487862  0.68738415  0.76376103    -0.78800
C1716       C  0.80434438  0.67130810  0.74103920     0.82000
N1717       N  0.80072537  0.63756309  0.73651493    -0.80500
C1718       C  0.72059825  0.86836077  0.70408190     0.79500
N1719       N  0.69857222  0.85082244  0.72362012    -0.78800
C1720       C  0.69489424  0.81710985  0.71932945     0.81900
N1721       N  0.71393560  0.80087710  0.69640992    -0.78800
C1722       C  0.73553860  0.81803402  0.67652679     0.82000
N1723       N  0.73925794  0.85181678  0.68062408    -0.80500
C1724       C  0.77124670  0.96651002  0.85519593     0.79500
N1725       N  0.75153850  0.94420060  0.87224365    -0.78800
C1726       C  0.75598243  0.93999819  0.90584814     0.81900
N1727       N  0.77909926  0.95891509  0.92241705    -0.78800
C1728       C  0.79902693  0.98083025  0.90569535     0.82000
N1729       N  0.79490003  0.98494340  0.87209033    -0.80500
C1730       C  0.87263634  0.96781833  0.69869384     0.79500
N1731       N  0.88996017  0.98659782  0.67586699    -0.78800
C1732       C  0.92358951  0.98172553  0.67180444     0.81900
N1733       N  0.93974876  0.95885104  0.69118029    -0.78800
C1734       C  0.92264847  0.93983165  0.71363316     0.82000
N1735       N  0.88920007  0.94494398  0.71802756    -0.80500
C1736       C  0.72169169  0.52298668  0.60359699     0.79500
N1737       N  0.74041618  0.54576432  0.58614007    -0.78800
C1738       C  0.73589009  0.54902752  0.55243872     0.81900
N1739       N  0.71327196  0.52906425  0.53636782    -0.78800
C1740       C  0.69415466  0.50678641  0.55364745     0.82000
N1741       N  0.69894064  0.00311863  0.58721368    -0.80500
C1742       C  0.62110800  0.51898080  0.75577418     0.79500
N1743       N  0.60386425  0.49942826  0.77801925    -0.78800
C1744       C  0.57022682  0.50384759  0.78205862     0.81900
N1745       N  0.55378803  0.52677223  0.76306016    -0.78800
C1746       C  0.57067858  0.54657579  0.74120462     0.82000
N1747       N  0.60435450  0.54246024  0.73723530    -0.80500
O1748       O  0.74475479  0.98936445  0.64639809    -0.79300
C1749       C  0.83764126  0.97598385  0.70660476     0.81800
O1750       O  0.71358132  0.91777988  0.73667350    -0.80400
O1751       O  0.78530708  0.99249641  0.80375973    -0.81900
O1752       O  0.74341936  0.57839627  0.73172477    -0.81700
O1753       O  0.72010423  0.53753642  0.66112304    -0.80300
Zn1754     Zn  0.76302136  0.96875297  0.68910111     1.55700
O1755       O  0.79104296  0.56200800  0.75682021    -0.81700
Cd1756     Cd  0.72201308  0.53467000  0.71309862     1.59700
Cd1757     Cd  0.71844094  0.96557555  0.75733492     1.59600
O1758       O  0.67289198  0.53261193  0.73003618    -0.81700
O1759       O  0.74797606  0.99426775  0.72814439    -1.92200
Cd1760     Cd  0.78792152  0.50978573  0.75483636     1.59900
O1761       O  0.67068822  0.98641541  0.76186974    -0.81600
O1762       O  0.83175528  0.99138009  0.73404039    -0.80300
C1763       C  0.72688175  0.90426163  0.71086775     0.82300
C1764       C  0.72928545  0.51640825  0.63892985     0.81900
O1765       O  0.81418356  0.96714636  0.68644973    -0.79200
C1766       C  0.77065418  0.58489611  0.74751356     0.82700
O1767       O  0.74622445  0.92069973  0.69130186    -0.79300
C1768       C  0.65690149  0.51244387  0.74913778     0.82900
C1769       C  0.76491767  0.97332031  0.81941024     0.83200
O1770       O  0.73887887  0.96065723  0.80527927    -0.81700
C1771       C  0.52623881  0.62059156  0.95174159     0.79500
N1772       N  0.54884313  0.63794917  0.97093129    -0.78800
C1773       C  0.55212830  0.67175780  0.96703496     0.81900
N1774       N  0.53237481  0.68807934  0.94460379    -0.78800
C1775       C  0.51021702  0.67094952  0.92506986     0.82000
N1776       N  0.50650461  0.63721954  0.92919402    -0.80500
C1777       C  0.62278113  0.96850696  0.50763942     0.79500
N1778       N  0.64011278  0.98741562  0.53048662    -0.78800
C1779       C  0.67376706  0.98276947  0.53458285     0.81900
N1780       N  0.68998278  0.95996430  0.51529055    -0.78800
C1781       C  0.67286942  0.94078014  0.99283354     0.82000
N1782       N  0.63934972  0.94567264  0.98834472    -0.80500
C1783       C  0.97195998  0.52194609  0.60332754     0.79500
N1784       N  0.94915290  0.00201707  0.61939783    -0.78800
C1785       C  0.94413831  0.50573140  0.65292557     0.81900
N1786       N  0.96313011  0.52811987  0.67044931    -0.78800
C1787       C  0.98579430  0.54812522  0.65467993     0.82000
N1788       N  0.99048006  0.54483359  0.62104886    -0.80500
C1789       C  0.97007026  0.86892739  0.50248974     0.79500
N1790       N  0.94783572  0.85124899  0.98312715    -0.78800
C1791       C  0.94392929  0.81762542  0.98783874     0.81100
N1792       N  0.96303515  0.80161138  0.51104463    -0.78800
C1793       C  0.98483830  0.81899715  0.53080574     0.82000
N1794       N  0.98872064  0.85265416  0.52624020    -0.80500
C1795       C  0.87085681  0.51908580  0.95127216     0.79500
N1796       N  0.85317845  0.49980568  0.92896272    -0.78800
C1797       C  0.81948111  0.50428702  0.92535839     0.81900
N1798       N  0.80342383  0.52706000  0.94481704    -0.78800
C1799       C  0.82079729  0.54667689  0.96670806     0.82000
N1800       N  0.85452307  0.54244838  0.97022987    -0.80500
C1801       C  0.52158593  0.96644411  0.85151649     0.79500
N1802       N  0.54552439  0.98459942  0.83498662    -0.78800
C1803       C  0.55003503  0.98020060  0.80149045     0.81900
N1804       N  0.53006026  0.95837508  0.78447254    -0.78800
C1805       C  0.50660565  0.93980311  0.80068795     0.82000
N1806       N  0.00187358  0.94420369  0.83418857    -0.80500
O1807       O  0.56445055  0.96704294  0.51960888    -0.79300
C1808       C  0.97958730  0.51569188  0.56795281     0.81800
O1809       O  0.96324169  0.91807545  0.96946205    -0.80400
O1810       O  0.92278128  0.53218302  0.97710638    -0.81900
O1811       O  0.53971548  0.56270614  0.94960664    -0.81700
O1812       O  0.58163803  0.99261028  0.97275335    -0.80300
Zn1813     Zn  0.51332597  0.96882018  0.51724055     1.55700
O1814       O  0.99243251  0.57838909  0.97541279    -0.81700
Cd1815     Cd  0.53754323  0.51045274  0.95179636     1.59700
Cd1816     Cd  0.96828926  0.96579441  0.94877435     1.59600
O1817       O  0.53520600  0.99279353  0.90300161    -0.81700
O1818       O  0.99792980  0.99437568  0.97831409    -1.92200
Cd1819     Cd  0.97187743  0.53437407  0.99388860     1.59900
O1820       O  0.98886951  0.96081063  0.90099043    -0.81600
O1821       O  0.97012452  0.53687413  0.54589653    -0.80300
C1822       C  0.97662612  0.90464707  0.99536453     0.82300
C1823       C  0.58773077  0.97653555  0.49976448     0.81900
O1824       O  0.49539594  0.98893061  0.56028005    -0.79200
C1825       C  0.51919001  0.58528435  0.95924803     0.82700
O1826       O  0.99626300  0.92103019  0.51484947    -0.79300
C1827       C  0.51495241  0.97345789  0.88716263     0.82900
C1828       C  0.90670372  0.51240170  0.95754980     0.83200
O1829       O  0.92045377  0.98670029  0.94418110    -0.81700
C1830       C  0.62528055  0.76847407  0.75684821     0.79500
N1831       N  0.64192375  0.79225827  0.73862022    -0.78800
C1832       C  0.67552605  0.79684310  0.74291466     0.81900
N1833       N  0.69255977  0.77714603  0.76478882    -0.78800
C1834       C  0.67621938  0.75390332  0.78352557     0.82000
N1835       N  0.64259451  0.74903217  0.77914619    -0.80500
C1836       C  0.87316813  0.71891933  0.70043903     0.79500
N1837       N  0.85548384  0.73765971  0.67789557    -0.78800
C1838       C  0.82165187  0.73341298  0.67501125     0.81900
N1839       N  0.80566065  0.71099976  0.69507783    -0.78800
C1840       C  0.82318324  0.69180073  0.71709928     0.82000
N1841       N  0.85691690  0.69633554  0.72039399    -0.80500
C1842       C  0.96913207  0.86954775  0.75266119     0.79500
N1843       N  0.98789603  0.88657739  0.77580837    -0.78800
C1844       C  0.98308368  0.92003963  0.78046074     0.81900
N1845       N  0.96080979  0.93665484  0.76078426    -0.78800
C1846       C  0.94199780  0.91995344  0.73767945     0.82000
N1847       N  0.94643927  0.88633917  0.73323689    -0.80500
C1848       C  0.52500633  0.61782694  0.70288045     0.79500
N1849       N  0.54739322  0.60042755  0.72213574    -0.78800
C1850       C  0.55103897  0.56674892  0.71766873     0.81900
N1851       N  0.53144784  0.55041680  0.69493696    -0.78800
C1852       C  0.50944855  0.56749638  0.67535376     0.82000
N1853       N  0.50594568  0.60122385  0.67951927    -0.80500
C1854       C  0.97301379  0.71694024  0.85344666     0.79500
N1855       N  0.99188740  0.69444956  0.87110937    -0.78800
C1856       C  0.98665596  0.69023829  0.90454131     0.81900
N1857       N  0.96348163  0.70935385  0.92041208    -0.78800
C1858       C  0.94422649  0.73145474  0.90308871     0.82000
N1859       N  0.94930196  0.73562647  0.86961017    -0.80500
C1860       C  0.52423438  0.77378747  0.60188526     0.79500
N1861       N  0.54674385  0.75431433  0.58509733    -0.78800
C1862       C  0.55079873  0.75820472  0.55148590     0.81900
N1863       N  0.53125090  0.78031921  0.53458103    -0.78800
C1864       C  0.50884346  0.79986718  0.55100651     0.82000
N1865       N  0.50494913  0.79634097  0.58474019    -0.80500
O1866       O  0.95740680  0.81120949  0.75495051    -0.79300
C1867       C  0.90866562  0.72637415  0.70664162     0.81800
O1868       O  0.50629606  0.70992678  0.80452437    -0.80400
O1869       O  0.49949344  0.66970247  0.68963520    -0.81900
O1870       O  0.52742906  0.78653504  0.65990427    -0.81700
O1871       O  0.00436059  0.82840223  0.72942624    -0.80300
Zn1872     Zn  0.95963468  0.76020874  0.75364489     1.55700
O1873       O  0.00045219  0.73975556  0.64380225    -0.81700
Cd1874     Cd  0.52524734  0.78420212  0.71208038     1.59700
Cd1875     Cd  0.52737305  0.71507581  0.75698153     1.59600
O1876       O  0.57394325  0.78179713  0.73017995    -0.81700
O1877       O  0.99836354  0.74467969  0.72808001    -1.92200
Cd1878     Cd  0.98263220  0.71872036  0.68780177     1.59900
O1879       O  0.57540698  0.73577611  0.76238086    -0.81600
O1880       O  0.93057048  0.71670971  0.68550679    -0.80300
C1881       C  0.98056285  0.72358807  0.81787378     0.82300
C1882       C  0.97722856  0.83449684  0.74521794     0.81900
O1883       O  0.91656157  0.74228374  0.73335228    -0.79200
C1884       C  0.51698292  0.76644839  0.63712505     0.82700
O1885       O  0.96153569  0.74348759  0.80148362    -0.79300
C1886       C  0.58953325  0.76173510  0.74971864     0.82900
C1887       C  0.51870451  0.65364329  0.70962973     0.83200
O1888       O  0.53174055  0.66735007  0.73568234    -0.81700
loop_ 
_geom_bond_atom_site_label_1 
_geom_bond_atom_site_label_2 
_geom_bond_distance 
_geom_bond_site_symmetry_2 
_ccdc_geom_bond_type 
C1            N2   1.363       .  A
C1            N6   1.363       .  A
C1           C57   1.470       .  S
N2            C3   1.356       .  A
C3            N4   1.353       .  A
C3          C186   1.460       .  S
N4            C5   1.354       .  A
C5            N6   1.359       .  A
C5           C70   1.460       .  S
C7            N8   1.361       .  A
C7           N12   1.360       .  A
C7           C38   1.460       .  S
N8            C9   1.358       .  A
C9           N10   1.353       .  A
C9           C62   1.457       .  S
N10          C11   1.352       .  A
C11          N12   1.357       .  A
C11         C182   1.457       .  S
C13          N14   1.361       .  A
C13          N18   1.363       .  A
C13          C53   1.463       .  S
N14          C15   1.356       .  A
C15          N16   1.353       .  A
C15         C139   1.459       .  S
N16          C17   1.354       .  A
C17          N18   1.360       .  A
C17         C206   1.462       .  S
C19          N20   1.363       .  A
C19          N24   1.362       .  A
C19          C52   1.471       .  S
N20          C21   1.358       .  A
C21          N22   1.353       .  A
C21         C129   1.458       .  S
N22          C23   1.353       .  A
C23          N24   1.358       .  A
C23          C74   1.458       .  S
C25          N26   1.362       .  A
C25         N266   1.362   1_554  A
C25          C58   1.468   1_554  S
N26          C27   1.358       .  A
C27          N28   1.353       .  A
C27         C210   1.458       .  S
N28         C265   1.353   1_554  A
C29          N30   1.356       .  A
C29         N264   1.353       .  A
C29         C121   1.458       .  S
N30         C261   1.362       .  A
C31          N32   1.362       .  A
C31         N272   1.361   1_554  A
C31         C291   1.461   1_554  S
N32          C33   1.357       .  A
C33          N34   1.353       .  A
C33          C86   1.460       .  S
N34         C271   1.354   1_554  A
C35          N36   1.358       .  A
C35         N270   1.354       .  A
C35         C147   1.461       .  S
N36         C267   1.361       .  A
O37          C53   1.275       .  A
O37         Zn43   2.037       .  S
C38          O54   1.274       .  A
C38          O51   1.272       .  A
O39          C52   1.275       .  A
O39        Cd282   2.074       .  S
O40         C294   1.273       .  A
O40         Cd49   2.061       .  S
O41         C291   1.274   1_554  A
O41         Cd45   2.079       .  S
O42          C53   1.273       .  A
O42        Cd281   2.064       .  S
Zn43         O54   2.023       .  S
Zn43         O56   2.024       .  S
Zn43         O48   1.951       .  S
O44          C55   1.273       .  A
O44         Cd49   2.065       .  S
Cd45         O47   2.067       .  S
Cd45        O278   2.064   1_554  S
Cd45        O284   2.000   1_554  S
Cd46         O50   2.081       .  S
Cd46         O59   2.080       .  S
Cd46        O275   2.074   1_554  S
Cd46        O284   2.008   1_554  S
O47          C57   1.274       .  A
O48         Cd49   1.999       .  S
O48        Cd281   2.000       .  S
O48        Cd282   2.008       .  S
Cd49         O51   2.069       .  S
O50          C57   1.276       .  A
C52          O56   1.275       .  A
C55         C267   1.461       .  S
C55         O277   1.274       .  A
C58          O59   1.276   1_556  A
C58         O276   1.273       .  A
C60          N61   1.360       .  A
C60          N65   1.362       .  A
C60         C114   1.461       .  S
N61          C62   1.356       .  A
C62          N63   1.353       .  A
N63          C64   1.353       .  A
C64          N65   1.359       .  A
C64         C188   1.460       .  S
C66          N67   1.362       .  A
C66          N71   1.364       .  A
C66         C111   1.471       .  S
N67          C68   1.357       .  A
C68          N69   1.352       .  A
C68         C180   1.457       .  S
N69          C70   1.352       .  A
C70          N71   1.359       .  A
C72          N73   1.363       .  A
C72          N77   1.363       .  A
C72         C117   1.470       .  S
N73          C74   1.358       .  A
C74          N75   1.353       .  A
N75          C76   1.351       .  A
C76          N77   1.356       .  A
C76         C617   1.458       .  S
C78          N79   1.363       .  A
C78          N83   1.361       .  A
C78          C97   1.463       .  S
N79          C80   1.360       .  A
C80          N81   1.354       .  A
C80         C605   1.463       .  S
N81          C82   1.353       .  A
C82          N83   1.356       .  A
C82         C194   1.459       .  S
C84          N85   1.361       .  A
C84         N561   1.361       .  A
C84         C112   1.461       .  S
N85          C86   1.359       .  A
C86          N87   1.354       .  A
N87          C88   1.353       .  A
C88         N561   1.356       .  A
C88         C599   1.459   1_545  S
N89         C556   1.361       .  A
N89         C560   1.356       .  A
C90          N91   1.363   1_545  A
C90          N95   1.363       .  A
C90         C116   1.471       .  S
N91          C92   1.358   1_565  A
C92          N93   1.352       .  A
C92         C623   1.457   1_545  S
N93          C94   1.351       .  A
C94          N95   1.357       .  A
C94         C198   1.458       .  S
O96         C584   1.274       .  A
O96        Zn102   2.020       .  S
C97         O113   1.274       .  A
C97         O110   1.274       .  A
O98         C111   1.276       .  A
O98        Cd105   2.076       .  S
O99         C117   1.274       .  A
O99        Cd580   2.068       .  S
O100        C114   1.274       .  A
O100       Cd104   2.066       .  S
O101        C112   1.273       .  A
O101       Cd104   2.072       .  S
Zn102       O113   2.036       .  S
Zn102       O115   2.021       .  S
Zn102       O107   1.951       .  S
O103        C114   1.274       .  A
O103       Cd108   2.079       .  S
Cd104       O106   2.067       .  S
Cd104       O579   2.001   1_545  S
Cd105       O109   2.080       .  S
Cd105       O118   2.079       .  S
Cd105       O107   2.006       .  S
O106        C116   1.274       .  A
O107       Cd576   2.001       .  S
O107       Cd580   2.000       .  S
Cd108       O571   2.068   1_545  S
Cd108       O582   2.066   1_545  S
Cd108       O579   2.000   1_545  S
O109        C588   1.276       .  A
O110       Cd580   2.066       .  S
C111        O115   1.274       .  A
C112        O568   1.274   1_545  A
C116        O581   1.276   1_545  A
C117        O118   1.276       .  A
C119        N120   1.361       .  A
C119        N124   1.362       .  A
C119        C173   1.460       .  S
N120        C121   1.358       .  A
C121        N122   1.353       .  A
N122        C123   1.352       .  A
C123        N124   1.357       .  A
C123       C1148   1.459   1_455  S
C125        N126   1.361       .  A
C125        N366   1.361   1_554  A
C125        C171   1.462   1_554  S
N126        C127   1.359       .  A
C127        N128   1.353       .  A
C127        C560   1.459       .  S
N128        C365   1.353   1_554  A
C129        N130   1.357       .  A
C129        N364   1.353       .  A
N130        C361   1.361       .  A
C131        N136   1.361       .  A
C131        N604   1.362       .  A
C131        C156   1.462       .  S
N132        C603   1.362       .  A
N132        C605   1.358       .  A
C133        N134   1.354       .  A
C133        N604   1.358       .  A
C133        C552   1.463   1_545  S
N134        C135   1.354       .  A
C135        N136   1.358       .  A
C135       C1144   1.462       .  S
C137        N142   1.363       .  A
C137        N374   1.362   1_554  A
C137        C406   1.469   1_554  S
N138        C139   1.357       .  A
N138        C373   1.362       .  A
C139        N376   1.353       .  A
N140        C141   1.354       .  A
N140        C375   1.353   1_554  A
C141        N142   1.357       .  A
C141       C1156   1.460       .  S
C143        N144   1.362   1_545  A
C143        N148   1.363       .  A
C143        C176   1.469       .  S
N144        C145   1.357   1_565  A
C145        N146   1.353       .  A
C145        C548   1.458   1_545  S
N146        C147   1.353       .  A
C147        N148   1.357       .  A
C149        N150   1.362       .  A
C149       N1098   1.363       .  A
C149        C175   1.470       .  S
N150        C151   1.357       .  A
C151        N152   1.352       .  A
C151        C564   1.457       .  S
N152        C153   1.352       .  A
C153       N1098   1.358       .  A
C153       C1136   1.457   1_455  S
N154       C1093   1.363       .  A
N154       C1097   1.358       .  A
O155        C171   1.274   1_554  A
O155       Zn161   2.033       .  S
C156        O169   1.273       .  A
C156       O1588   1.274   1_545  A
O157        C170   1.276       .  A
O157       Cd164   2.076       .  S
O158        C176   1.273       .  A
O158       Cd167   2.059       .  S
O159        C173   1.274       .  A
O159       Cd163   2.079       .  S
O160        C407   1.273       .  A
O160       Cd635   2.064       .  S
Zn161       O172   2.022   1_455  S
Zn161      O1118   2.015   1_455  S
Zn161      O1346   1.950   1_454  S
O162       C1117   1.273       .  A
O162       Cd167   2.064       .  S
Cd163       O632   2.064   1_545  S
Cd163       O637   2.065   1_545  S
Cd163      O1582   2.000   1_445  S
Cd164       O168   2.082       .  S
Cd164       O177   2.083       .  S
Cd164       O166   2.007       .  S
O165        C175   1.274       .  A
O165       Cd635   2.065       .  S
O166      Zn1341   1.950       .  S
O166      Cd1579   2.000       .  S
O166       Cd639   1.998       .  S
Cd167       O405   2.073       .  S
Cd167       O638   1.998   1_545  S
O168       C1119   1.276       .  A
O169       Cd403   2.073   1_554  S
C170        C373   1.469       .  S
C170        O410   1.274       .  A
C171        O396   1.273       .  A
O172       C1572   1.274       .  A
C173       O1106   1.273   1_455  A
O174        C406   1.274   1_554  A
O174      Zn1105   2.015       .  S
C175       O1112   1.276   1_455  A
C176        O649   1.276   1_545  A
O177        C648   1.276       .  A
C178        N179   1.362       .  A
C178        N183   1.362       .  A
C178        C234   1.470       .  S
N179        C180   1.356       .  A
C180        N181   1.352       .  A
N181        C182   1.353       .  A
C182        N183   1.359       .  A
C184        N185   1.361       .  A
C184        N189   1.361       .  A
C184        C215   1.459       .  S
N185        C186   1.357       .  A
C186        N187   1.354       .  A
N187        C188   1.354       .  A
C188        N189   1.356       .  A
C190        N191   1.360       .  A
C190        N195   1.361       .  A
C190        C230   1.460       .  S
N191        C192   1.356       .  A
C192        N193   1.353       .  A
C192       C1097   1.457       .  S
N193        C194   1.353       .  A
C194        N195   1.359       .  A
C196        N197   1.362       .  A
C196        N201   1.364       .  A
C196        C235   1.470       .  S
N197        C198   1.357       .  A
C198        N199   1.354       .  A
N199        C200   1.353       .  A
C200        N201   1.357       .  A
C200       C1079   1.462   1_455  S
C202        N203   1.362       .  A
C202        N207   1.364       .  A
C202        C229   1.472       .  S
N203        C204   1.358       .  A
C204        N205   1.353       .  A
C204       C1067   1.459       .  S
N205        C206   1.353       .  A
C206        N207   1.358       .  A
C208        N209   1.361       .  A
C208        N213   1.362       .  A
C208        C232   1.462       .  S
N209        C210   1.357       .  A
C210        N211   1.352       .  A
N211        C212   1.353       .  A
C212        N213   1.359       .  A
C212       C1085   1.460   1_455  S
O214        C230   1.274       .  A
O214       Zn220   2.028       .  S
C215        O231   1.273       .  A
C215        O228   1.272       .  A
O216       C1173   1.276   1_455  A
O216       Cd223   2.082       .  S
O217        C235   1.273   1_655  A
O217      Cd1170   2.062       .  S
O218        C232   1.274       .  A
O218       Cd222   2.080       .  S
O219        C230   1.273       .  A
O219      Cd1166   2.064       .  S
Zn220       O231   2.015       .  S
Zn220       O233   2.018       .  S
Zn220       O225   1.949       .  S
O221       C1176   1.273       .  A
O221       Cd226   2.067       .  S
Cd222       O224   2.063       .  S
Cd222      O1163   2.064       .  S
Cd222      O1169   2.001   1_455  S
Cd223       O227   2.084       .  S
Cd223       O236   2.084       .  S
Cd223      O1169   2.008   1_455  S
O224        C234   1.274       .  A
O225       Cd226   2.001       .  S
O225      Cd1166   2.001       .  S
O225      Cd1167   2.008       .  S
Cd226       O228   2.070       .  S
Cd226      O1161   2.062       .  S
O227        C234   1.277       .  A
C229        O233   1.274       .  A
C229       O1160   1.276       .  A
C232       O1165   1.273       .  A
C235        O236   1.277       .  A
C237        N238   1.363       .  A
C237        N242   1.363       .  A
C237        C293   1.470       .  S
N238        C239   1.356       .  A
C239        N240   1.353       .  A
C239        C422   1.460       .  S
N240        C241   1.354       .  A
C241        N242   1.359       .  A
C241        C306   1.460       .  S
C243        N244   1.361       .  A
C243        N248   1.360       .  A
C243        C274   1.460       .  S
N244        C245   1.358       .  A
C245        N246   1.353       .  A
C245        C298   1.457       .  S
N246        C247   1.352       .  A
C247        N248   1.357       .  A
C247        C418   1.457       .  S
C249        N250   1.361       .  A
C249        N254   1.363       .  A
C249        C289   1.463       .  S
N250        C251   1.356       .  A
C251        N252   1.353       .  A
C251        C375   1.459       .  S
N252        C253   1.354       .  A
C253        N254   1.360       .  A
C253        C442   1.462       .  S
C255        N256   1.363       .  A
C255        N260   1.362       .  A
C255        C288   1.471       .  S
N256        C257   1.358       .  A
C257        N258   1.353       .  A
C257        C365   1.458       .  S
N258        C259   1.353       .  A
C259        N260   1.358       .  A
C259        C310   1.458       .  S
C261        N262   1.362       .  A
C261        C294   1.468       .  S
N262        C263   1.358       .  A
C263        N264   1.353       .  A
C263        C446   1.458       .  S
C265        N266   1.356       .  A
C265        C357   1.458       .  S
C267        N268   1.362       .  A
N268        C269   1.357       .  A
C269        N270   1.353       .  A
C269        C322   1.460       .  S
C271        N272   1.358       .  A
C271        C383   1.461       .  S
O273        C289   1.275       .  A
O273       Zn279   2.037       .  S
C274        O290   1.274       .  A
C274        O287   1.272       .  A
O275        C288   1.275       .  A
O276       Cd285   2.061       .  S
O277       Cd281   2.079       .  S
O278        C289   1.273       .  A
Zn279       O290   2.023       .  S
Zn279       O292   2.024       .  S
Zn279       O284   1.951       .  S
O280        C291   1.273       .  A
O280       Cd285   2.065       .  S
Cd281       O283   2.067       .  S
Cd282       O286   2.081       .  S
Cd282       O295   2.080       .  S
O283        C293   1.274       .  A
O284       Cd285   1.999       .  S
Cd285       O287   2.069       .  S
O286        C293   1.276       .  A
C288        O292   1.275       .  A
C294        O295   1.276       .  A
C296        N297   1.360       .  A
C296        N301   1.362       .  A
C296        C350   1.461       .  S
N297        C298   1.356       .  A
C298        N299   1.353       .  A
N299        C300   1.353       .  A
C300        N301   1.359       .  A
C300        C424   1.460       .  S
C302        N303   1.362       .  A
C302        N307   1.364       .  A
C302        C347   1.471       .  S
N303        C304   1.357       .  A
C304        N305   1.352       .  A
C304        C416   1.457       .  S
N305        C306   1.352       .  A
C306        N307   1.359       .  A
C308        N309   1.363       .  A
C308        N313   1.363       .  A
C308        C353   1.470       .  S
N309        C310   1.358       .  A
C310        N311   1.353       .  A
N311        C312   1.351       .  A
C312        N313   1.356       .  A
C312        C853   1.458       .  S
C314        N315   1.363       .  A
C314        N319   1.361       .  A
C314        C333   1.463       .  S
N315        C316   1.360       .  A
C316        N317   1.354       .  A
C316        C841   1.463       .  S
N317        C318   1.353       .  A
C318        N319   1.356       .  A
C318        C430   1.459       .  S
C320        N321   1.361       .  A
C320        N797   1.361       .  A
C320        C348   1.461       .  S
N321        C322   1.359       .  A
C322        N323   1.354       .  A
N323        C324   1.353       .  A
C324        N797   1.356       .  A
C324        C835   1.459   1_545  S
N325        C792   1.361       .  A
N325        C796   1.356       .  A
C326        N327   1.363   1_545  A
C326        N331   1.363       .  A
C326        C352   1.471       .  S
N327        C328   1.358   1_565  A
C328        N329   1.352       .  A
C328        C859   1.457   1_545  S
N329        C330   1.351       .  A
C330        N331   1.357       .  A
C330        C434   1.458       .  S
O332        C820   1.274       .  A
O332       Zn338   2.020       .  S
C333        O349   1.274       .  A
C333        O346   1.274       .  A
O334        C347   1.276       .  A
O334       Cd341   2.076       .  S
O335        C353   1.274       .  A
O335       Cd816   2.068       .  S
O336        C350   1.274       .  A
O336       Cd340   2.066       .  S
O337        C348   1.273       .  A
O337       Cd340   2.072       .  S
Zn338       O349   2.036       .  S
Zn338       O351   2.021       .  S
Zn338       O343   1.951       .  S
O339        C350   1.274       .  A
O339       Cd344   2.079       .  S
Cd340       O342   2.067       .  S
Cd340       O815   2.001   1_545  S
Cd341       O345   2.080       .  S
Cd341       O354   2.079       .  S
Cd341       O343   2.006       .  S
O342        C352   1.274       .  A
O343       Cd812   2.001       .  S
O343       Cd816   2.000       .  S
Cd344       O807   2.068   1_545  S
Cd344       O818   2.066   1_545  S
Cd344       O815   2.000   1_545  S
O345        C824   1.276       .  A
O346       Cd816   2.066       .  S
C347        O351   1.274       .  A
C348        O804   1.274   1_545  A
C352        O817   1.276   1_545  A
C353        O354   1.276       .  A
C355        N356   1.361       .  A
C355        N360   1.362       .  A
C355        C409   1.460       .  S
N356        C357   1.358       .  A
C357        N358   1.353       .  A
N358        C359   1.352       .  A
C359        N360   1.357       .  A
C359       C1384   1.459   1_455  S
C361        N362   1.361       .  A
C361        C407   1.462       .  S
N362        C363   1.359       .  A
C363        N364   1.353       .  A
C363        C796   1.459       .  S
C365        N366   1.357       .  A
C367        N840   1.362       .  A
C367        N372   1.361       .  A
C367        C392   1.462       .  S
N368        C839   1.362       .  A
N368        C841   1.358       .  A
C369        N840   1.358       .  A
C369        N370   1.354       .  A
C369        C788   1.463   1_545  S
N370        C371   1.354       .  A
C371        N372   1.358       .  A
C371       C1380   1.462       .  S
C373        N378   1.363       .  A
N374        C375   1.357       .  A
N376        C377   1.354       .  A
C377        N378   1.357       .  A
C377       C1392   1.460       .  S
C379        N380   1.362   1_545  A
C379        N384   1.363       .  A
C379        C412   1.469       .  S
N380        C381   1.357   1_565  A
C381        N382   1.353       .  A
C381        C784   1.458   1_545  S
N382        C383   1.353       .  A
C383        N384   1.357       .  A
C385        N386   1.362       .  A
C385       N1334   1.363       .  A
C385        C411   1.470       .  S
N386        C387   1.357       .  A
C387        N388   1.352       .  A
C387        C800   1.457       .  S
N388        C389   1.352       .  A
C389       N1334   1.358       .  A
C389       C1372   1.457   1_455  S
N390       C1329   1.363       .  A
N390       C1333   1.358       .  A
O391        C407   1.274       .  A
O391       Zn397   2.033       .  S
C392       O1824   1.274   1_545  A
C392        O405   1.273       .  A
O393        C406   1.276       .  A
O393       Cd400   2.076       .  S
O394        C412   1.273       .  A
O394       Cd403   2.059       .  S
O395        C409   1.274       .  A
O395       Cd399   2.079       .  S
O396       Cd871   2.064       .  S
Zn397       O408   2.022   1_455  S
Zn397      O1354   2.015   1_455  S
Zn397      O1110   1.950   1_455  S
O398       C1353   1.273       .  A
O398       Cd403   2.064       .  S
Cd399       O868   2.064   1_545  S
Cd399       O873   2.065   1_545  S
Cd399      O1818   2.000   1_445  S
Cd400       O404   2.082       .  S
Cd400       O413   2.083       .  S
Cd400       O402   2.007       .  S
O401        C411   1.274       .  A
O401       Cd871   2.065       .  S
O402      Zn1105   1.950   1_556  S
O402      Cd1815   2.000       .  S
O402       Cd875   1.998       .  S
Cd403       O874   1.998   1_545  S
O404       C1355   1.276       .  A
O408       C1808   1.274       .  A
C409       O1342   1.273   1_455  A
O410      Zn1341   2.015       .  S
C411       O1348   1.276   1_455  A
C412        O885   1.276   1_545  A
O413        C884   1.276       .  A
C414        N415   1.362       .  A
C414        N419   1.362       .  A
C414        C470   1.470       .  S
N415        C416   1.356       .  A
C416        N417   1.352       .  A
N417        C418   1.353       .  A
C418        N419   1.359       .  A
C420        N421   1.361       .  A
C420        N425   1.361       .  A
C420        C451   1.459       .  S
N421        C422   1.357       .  A
C422        N423   1.354       .  A
N423        C424   1.354       .  A
C424        N425   1.356       .  A
C426        N427   1.360       .  A
C426        N431   1.361       .  A
C426        C466   1.460       .  S
N427        C428   1.356       .  A
C428        N429   1.353       .  A
C428       C1333   1.457       .  S
N429        C430   1.353       .  A
C430        N431   1.359       .  A
C432        N433   1.362       .  A
C432        N437   1.364       .  A
C432        C471   1.470       .  S
N433        C434   1.357       .  A
C434        N435   1.354       .  A
N435        C436   1.353       .  A
C436        N437   1.357       .  A
C436       C1315   1.462   1_455  S
C438        N439   1.362       .  A
C438        N443   1.364       .  A
C438        C465   1.472       .  S
N439        C440   1.358       .  A
C440        N441   1.353       .  A
C440       C1303   1.459       .  S
N441        C442   1.353       .  A
C442        N443   1.358       .  A
C444        N445   1.361       .  A
C444        N449   1.362       .  A
C444        C468   1.462       .  S
N445        C446   1.357       .  A
C446        N447   1.352       .  A
N447        C448   1.353       .  A
C448        N449   1.359       .  A
C448       C1321   1.460   1_455  S
O450        C466   1.274       .  A
O450       Zn456   2.028       .  S
C451        O467   1.273       .  A
C451        O464   1.272       .  A
O452       C1409   1.276   1_455  A
O452       Cd459   2.082       .  S
O453        C471   1.273   1_655  A
O453      Cd1406   2.062       .  S
O454        C468   1.274       .  A
O454       Cd458   2.080       .  S
O455        C466   1.273       .  A
O455      Cd1402   2.064       .  S
Zn456       O467   2.015       .  S
Zn456       O469   2.018       .  S
Zn456       O461   1.949       .  S
O457       C1412   1.273       .  A
O457       Cd462   2.067       .  S
Cd458      O1399   2.064       .  S
Cd458       O460   2.063       .  S
Cd458      O1405   2.001   1_455  S
Cd459       O463   2.084       .  S
Cd459       O472   2.084       .  S
Cd459      O1405   2.008   1_455  S
O460        C470   1.274       .  A
O461      Cd1402   2.001       .  S
O461      Cd1403   2.008       .  S
O461       Cd462   2.001       .  S
Cd462      O1397   2.062       .  S
Cd462       O464   2.070       .  S
O463        C470   1.277       .  A
C465       O1396   1.276       .  A
C465        O469   1.274       .  A
C468       O1401   1.273       .  A
C471        O472   1.277       .  A
C473        N474   1.363       .  A
C473        N478   1.363       .  A
C473        C529   1.470       .  S
N474        C475   1.356       .  A
C475        N476   1.353       .  A
C475        C658   1.460       .  S
N476        C477   1.354       .  A
C477        N478   1.358       .  A
C477        C542   1.460       .  S
C479        N480   1.361       .  A
C479        N484   1.360       .  A
C479        C510   1.460       .  S
N480        C481   1.358       .  A
C481        N482   1.353       .  A
C481        C534   1.457       .  S
N482        C483   1.352       .  A
C483        N484   1.357       .  A
C483        C654   1.457       .  S
C485        N486   1.361       .  A
C485        N490   1.363       .  A
C485        C525   1.463       .  S
N486        C487   1.356       .  A
C487        N488   1.353       .  A
C487        C611   1.459       .  S
N488        C489   1.354       .  A
C489        N490   1.360       .  A
C489        C678   1.462       .  S
C491        N492   1.363       .  A
C491        N496   1.362       .  A
C491        C524   1.471       .  S
N492        C493   1.358       .  A
C493        N494   1.352       .  A
C493        C601   1.458       .  S
N494        C495   1.353       .  A
C495        N496   1.358       .  A
C495        C546   1.458       .  S
C497        N498   1.362       .  A
C497        N738   1.362   1_554  A
C497        C530   1.468   1_554  S
N498        C499   1.358       .  A
C499        N500   1.353       .  A
C499        C682   1.458       .  S
N500        C737   1.353   1_554  A
C501        N736   1.353       .  A
C501        N502   1.356       .  A
C501        C593   1.458       .  S
N502        C733   1.362       .  A
C503        N504   1.362       .  A
C503        N744   1.361   1_554  A
C503        C763   1.461   1_554  S
N504        C505   1.357       .  A
C505        N506   1.353       .  A
C505        C558   1.460       .  S
N506        C743   1.354   1_554  A
C507        N742   1.354       .  A
C507        N508   1.358       .  A
C507        C619   1.461       .  S
N508        C739   1.361       .  A
O509        C525   1.275       .  A
O509       Zn515   2.037       .  S
C510        O526   1.274       .  A
C510        O523   1.272       .  A
O511        C524   1.275       .  A
O511       Cd754   2.074       .  S
O512        C766   1.273       .  A
O512       Cd521   2.061       .  S
O513        C763   1.274   1_554  A
O513       Cd517   2.079       .  S
O514        C525   1.273       .  A
O514       Cd753   2.064       .  S
Zn515       O526   2.023       .  S
Zn515       O528   2.024       .  S
Zn515       O520   1.951       .  S
O516        C527   1.273       .  A
O516       Cd521   2.065       .  S
Cd517       O750   2.064   1_554  S
Cd517       O519   2.067       .  S
Cd517       O756   2.000   1_554  S
Cd518       O747   2.074   1_554  S
Cd518       O522   2.081       .  S
Cd518       O531   2.080       .  S
Cd518       O756   2.008   1_554  S
O519        C529   1.274       .  A
O520       Cd753   2.000       .  S
O520       Cd754   2.008       .  S
O520       Cd521   1.999       .  S
Cd521       O523   2.069       .  S
O522        C529   1.276       .  A
C524        O528   1.275       .  A
C527        C739   1.461       .  S
C527        O749   1.274       .  A
C530        O748   1.273       .  A
C530        O531   1.276   1_556  A
C532        N533   1.360       .  A
C532        N537   1.362       .  A
C532        C586   1.461       .  S
N533        C534   1.356       .  A
C534        N535   1.353       .  A
N535        C536   1.353       .  A
C536        N537   1.359       .  A
C536        C660   1.460       .  S
C538        N539   1.362       .  A
C538        N543   1.364       .  A
C538        C583   1.471       .  S
N539        C540   1.357       .  A
C540        N541   1.352       .  A
C540        C652   1.457       .  S
N541        C542   1.352       .  A
C542        N543   1.359       .  A
C544        N545   1.363       .  A
C544        N549   1.363       .  A
C544        C589   1.470       .  S
N545        C546   1.358       .  A
C546        N547   1.353       .  A
N547        C548   1.351       .  A
C548        N549   1.356       .  A
C550        N551   1.363       .  A
C550        N555   1.361       .  A
C550        C569   1.463       .  S
N551        C552   1.360       .  A
C552        N553   1.354       .  A
N553        C554   1.353       .  A
C554        N555   1.356       .  A
C554        C666   1.459       .  S
C556        N557   1.361       .  A
C556        C584   1.461       .  S
N557        C558   1.359       .  A
C558        N559   1.354       .  A
N559        C560   1.353       .  A
C562        N563   1.363       .  A
C562        N567   1.363       .  A
C562        C588   1.471       .  S
N563        C564   1.358       .  A
C564        N565   1.352       .  A
N565        C566   1.351       .  A
C566        N567   1.357       .  A
C566        C670   1.458       .  S
O568       Zn574   2.020       .  S
C569        O585   1.274       .  A
C569        O582   1.274       .  A
O570        C583   1.276       .  A
O570       Cd577   2.076       .  S
O571        C589   1.274       .  A
O572        C586   1.274       .  A
O572       Cd576   2.066       .  S
O573        C584   1.273       .  A
O573       Cd576   2.072       .  S
Zn574       O585   2.036       .  S
Zn574       O587   2.021       .  S
Zn574       O579   1.951       .  S
O575        C586   1.274       .  A
O575       Cd580   2.079       .  S
Cd576       O578   2.067       .  S
Cd577       O581   2.080       .  S
Cd577       O590   2.079       .  S
Cd577       O579   2.006       .  S
O578        C588   1.274       .  A
C583        O587   1.274       .  A
C589        O590   1.276       .  A
C591        N592   1.361       .  A
C591        N596   1.362       .  A
C591        C645   1.460       .  S
N592        C593   1.358       .  A
C593        N594   1.353       .  A
N594        C595   1.352       .  A
C595        N596   1.357       .  A
C595       C1620   1.459   1_455  S
C597        N598   1.361       .  A
C597        N838   1.361   1_554  A
C597        C643   1.462   1_554  S
N598        C599   1.359       .  A
C599        N600   1.353       .  A
N600        C837   1.353   1_554  A
C601        N836   1.353       .  A
C601        N602   1.357       .  A
N602        C833   1.361       .  A
C603        N608   1.361       .  A
C603        C628   1.462       .  S
C605        N606   1.354       .  A
N606        C607   1.354       .  A
C607        N608   1.358       .  A
C607       C1616   1.462       .  S
C609        N846   1.362   1_554  A
C609        N614   1.363       .  A
C609        C878   1.469   1_554  S
N610        C845   1.362       .  A
N610        C611   1.357       .  A
C611        N848   1.353       .  A
N612        C847   1.353   1_554  A
N612        C613   1.354       .  A
C613        N614   1.357       .  A
C613       C1628   1.460       .  S
C615        N616   1.362       .  A
C615        N620   1.363       .  A
C615        C648   1.469       .  S
N616        C617   1.357       .  A
C617        N618   1.353       .  A
N618        C619   1.353       .  A
C619        N620   1.357       .  A
C621        N622   1.362       .  A
C621       N1570   1.363       .  A
C621        C647   1.470       .  S
N622        C623   1.357       .  A
C623        N624   1.352       .  A
N624        C625   1.352       .  A
C625       N1570   1.358       .  A
C625       C1608   1.457   1_455  S
N626       C1565   1.363       .  A
N626       C1569   1.358       .  A
O627        C643   1.274   1_554  A
O627       Zn633   2.033       .  S
C628       O1116   1.274       .  A
C628        O641   1.273       .  A
O629        C642   1.276       .  A
O629       Cd636   2.076       .  S
O630        C648   1.273       .  A
O630       Cd639   2.059       .  S
O631        C645   1.274       .  A
O631       Cd635   2.079       .  S
O632        C879   1.273       .  A
Zn633       O644   2.022   1_455  S
Zn633      O1590   2.015   1_455  S
Zn633      O1818   1.950   1_454  S
O634       C1589   1.273       .  A
O634       Cd639   2.064       .  S
Cd635      O1110   2.000   1_455  S
Cd636       O640   2.082       .  S
Cd636       O649   2.083       .  S
Cd636       O638   2.007       .  S
O637        C647   1.274       .  A
O638      Zn1813   1.950       .  S
O638      Cd1107   2.000   1_565  S
Cd639       O877   2.073       .  S
O640       C1591   1.276       .  A
O641       Cd875   2.073   1_554  S
C642        C845   1.469       .  S
C642        O882   1.274       .  A
C643        O868   1.273       .  A
O644       C1100   1.274   1_565  A
C645       O1578   1.273   1_455  A
O646        C878   1.274   1_554  A
O646      Zn1577   2.015       .  S
C647       O1584   1.276   1_455  A
C650        N651   1.362       .  A
C650        N655   1.362       .  A
C650        C706   1.470       .  S
N651        C652   1.356       .  A
C652        N653   1.352       .  A
N653        C654   1.353       .  A
C654        N655   1.359       .  A
C656        N657   1.361       .  A
C656        N661   1.361       .  A
C656        C687   1.459       .  S
N657        C658   1.357       .  A
C658        N659   1.354       .  A
N659        C660   1.354       .  A
C660        N661   1.356       .  A
C662        N663   1.360       .  A
C662        N667   1.361       .  A
C662        C702   1.460       .  S
N663        C664   1.356       .  A
C664        N665   1.353       .  A
C664       C1569   1.457       .  S
N665        C666   1.353       .  A
C666        N667   1.359       .  A
C668        N669   1.362       .  A
C668        N673   1.364       .  A
C668        C707   1.470       .  S
N669        C670   1.357       .  A
C670        N671   1.354       .  A
N671        C672   1.353       .  A
C672        N673   1.357       .  A
C672       C1551   1.462   1_455  S
C674        N675   1.362       .  A
C674        N679   1.364       .  A
C674        C701   1.472       .  S
N675        C676   1.358       .  A
C676        N677   1.353       .  A
C676       C1539   1.459       .  S
N677        C678   1.353       .  A
C678        N679   1.358       .  A
C680        N681   1.361       .  A
C680        N685   1.362       .  A
C680        C704   1.462       .  S
N681        C682   1.357       .  A
C682        N683   1.352       .  A
N683        C684   1.353       .  A
C684        N685   1.359       .  A
C684       C1557   1.460   1_455  S
O686        C702   1.274       .  A
O686       Zn692   2.028       .  S
C687        O703   1.273       .  A
C687        O700   1.272       .  A
O688       C1645   1.276   1_455  A
O688       Cd695   2.082       .  S
O689        C707   1.273   1_655  A
O689      Cd1642   2.062       .  S
O690        C704   1.274       .  A
O690       Cd694   2.080       .  S
O691        C702   1.273       .  A
O691      Cd1638   2.064       .  S
Zn692       O703   2.015       .  S
Zn692       O705   2.018       .  S
Zn692       O697   1.949       .  S
O693       C1648   1.273       .  A
O693       Cd698   2.067       .  S
Cd694      O1635   2.064       .  S
Cd694       O696   2.063       .  S
Cd694      O1641   2.001   1_455  S
Cd695       O699   2.084       .  S
Cd695       O708   2.084       .  S
Cd695      O1641   2.008   1_455  S
O696        C706   1.274       .  A
O697      Cd1638   2.001       .  S
O697      Cd1639   2.008       .  S
O697       Cd698   2.001       .  S
Cd698      O1633   2.062       .  S
Cd698       O700   2.070       .  S
O699        C706   1.277       .  A
C701       O1632   1.276       .  A
C701        O705   1.274       .  A
C704       O1637   1.273       .  A
C707        O708   1.277       .  A
C709        N710   1.363       .  A
C709        N714   1.363       .  A
C709        C765   1.470       .  S
N710        C711   1.356       .  A
C711        N712   1.353       .  A
C711        C894   1.460       .  S
N712        C713   1.354       .  A
C713        N714   1.358       .  A
C713        C778   1.460       .  S
C715        N716   1.361       .  A
C715        N720   1.360       .  A
C715        C746   1.460       .  S
N716        C717   1.358       .  A
C717        N718   1.353       .  A
C717        C770   1.457       .  S
N718        C719   1.352       .  A
C719        N720   1.357       .  A
C719        C890   1.457       .  S
C721        N722   1.361       .  A
C721        N726   1.363       .  A
C721        C761   1.463       .  S
N722        C723   1.356       .  A
C723        N724   1.353       .  A
C723        C847   1.459       .  S
N724        C725   1.354       .  A
C725        N726   1.360       .  A
C725        C914   1.462       .  S
C727        N728   1.363       .  A
C727        N732   1.362       .  A
C727        C760   1.471       .  S
N728        C729   1.358       .  A
C729        N730   1.352       .  A
C729        C837   1.458       .  S
N730        C731   1.353       .  A
C731        N732   1.358       .  A
C731        C782   1.458       .  S
C733        N734   1.362       .  A
C733        C766   1.468       .  S
N734        C735   1.358       .  A
C735        N736   1.353       .  A
C735        C918   1.458       .  S
C737        N738   1.356       .  A
C737        C829   1.458       .  S
C739        N740   1.362       .  A
N740        C741   1.357       .  A
C741        N742   1.353       .  A
C741        C794   1.460       .  S
C743        N744   1.358       .  A
C743        C855   1.461       .  S
O745        C761   1.275       .  A
O745       Zn751   2.037       .  S
C746        O762   1.274       .  A
C746        O759   1.272       .  A
O747        C760   1.275       .  A
O748       Cd757   2.061       .  S
O749       Cd753   2.079       .  S
O750        C761   1.273       .  A
Zn751       O762   2.023       .  S
Zn751       O764   2.024       .  S
Zn751       O756   1.951       .  S
O752        C763   1.273       .  A
O752       Cd757   2.065       .  S
Cd753       O755   2.067       .  S
Cd754       O758   2.081       .  S
Cd754       O767   2.080       .  S
O755        C765   1.274       .  A
O756       Cd757   1.999       .  S
Cd757       O759   2.069       .  S
O758        C765   1.276       .  A
C760        O764   1.275       .  A
C766        O767   1.276       .  A
C768        N769   1.360       .  A
C768        N773   1.362       .  A
C768        C822   1.461       .  S
N769        C770   1.356       .  A
C770        N771   1.353       .  A
N771        C772   1.353       .  A
C772        N773   1.359       .  A
C772        C896   1.460       .  S
C774        N775   1.362       .  A
C774        N779   1.364       .  A
C774        C819   1.471       .  S
N775        C776   1.357       .  A
C776        N777   1.352       .  A
C776        C888   1.457       .  S
N777        C778   1.352       .  A
C778        N779   1.359       .  A
C780        N781   1.363       .  A
C780        N785   1.363       .  A
C780        C825   1.470       .  S
N781        C782   1.358       .  A
C782        N783   1.353       .  A
N783        C784   1.351       .  A
C784        N785   1.356       .  A
C786        N787   1.363       .  A
C786        N791   1.361       .  A
C786        C805   1.463       .  S
N787        C788   1.360       .  A
C788        N789   1.354       .  A
N789        C790   1.353       .  A
C790        N791   1.356       .  A
C790        C902   1.459       .  S
C792        N793   1.361       .  A
C792        C820   1.461       .  S
N793        C794   1.359       .  A
C794        N795   1.354       .  A
N795        C796   1.353       .  A
C798        N799   1.363       .  A
C798        N803   1.363       .  A
C798        C824   1.471       .  S
N799        C800   1.358       .  A
C800        N801   1.352       .  A
N801        C802   1.351       .  A
C802        N803   1.357       .  A
C802        C906   1.458       .  S
O804       Zn810   2.020       .  S
C805        O821   1.274       .  A
C805        O818   1.274       .  A
O806        C819   1.276       .  A
O806       Cd813   2.076       .  S
O807        C825   1.274       .  A
O808        C822   1.274       .  A
O808       Cd812   2.066       .  S
O809        C820   1.273       .  A
O809       Cd812   2.072       .  S
Zn810       O821   2.036       .  S
Zn810       O823   2.021       .  S
Zn810       O815   1.951       .  S
O811        C822   1.274       .  A
O811       Cd816   2.079       .  S
Cd812       O814   2.067       .  S
Cd813       O817   2.080       .  S
Cd813       O826   2.079       .  S
Cd813       O815   2.006       .  S
O814        C824   1.274       .  A
C819        O823   1.274       .  A
C825        O826   1.276       .  A
C827        N828   1.361       .  A
C827        N832   1.362       .  A
C827        C881   1.460       .  S
N828        C829   1.358       .  A
C829        N830   1.353       .  A
N830        C831   1.352       .  A
C831        N832   1.357       .  A
C831       C1856   1.459   1_455  S
C833        N834   1.361       .  A
C833        C879   1.462       .  S
N834        C835   1.359       .  A
C835        N836   1.353       .  A
C837        N838   1.357       .  A
C839        N844   1.361       .  A
C839        C864   1.462       .  S
C841        N842   1.354       .  A
N842        C843   1.354       .  A
C843        N844   1.358       .  A
C843       C1852   1.462       .  S
C845        N850   1.363       .  A
N846        C847   1.357       .  A
N848        C849   1.354       .  A
C849        N850   1.357       .  A
C849       C1864   1.460       .  S
C851        N852   1.362       .  A
C851        N856   1.363       .  A
C851        C884   1.469       .  S
N852        C853   1.357       .  A
C853        N854   1.353       .  A
N854        C855   1.353       .  A
C855        N856   1.357       .  A
C857        N858   1.362       .  A
C857       N1806   1.363       .  A
C857        C883   1.470       .  S
N858        C859   1.357       .  A
C859        N860   1.352       .  A
N860        C861   1.352       .  A
C861       N1806   1.358       .  A
C861       C1844   1.457   1_455  S
N862       C1801   1.363       .  A
N862       C1805   1.358       .  A
O863        C879   1.274       .  A
O863       Zn869   2.033       .  S
C864       O1352   1.274       .  A
C864        O877   1.273       .  A
O865        C878   1.276       .  A
O865       Cd872   2.076       .  S
O866        C884   1.273       .  A
O866       Cd875   2.059       .  S
O867        C881   1.274       .  A
O867       Cd871   2.079       .  S
Zn869       O880   2.022   1_455  S
Zn869      O1826   2.015   1_455  S
Zn869      O1582   1.950   1_455  S
O870       C1825   1.273       .  A
O870       Cd875   2.064       .  S
Cd871      O1346   2.000   1_455  S
Cd872       O876   2.082       .  S
Cd872       O885   2.083       .  S
Cd872       O874   2.007       .  S
O873        C883   1.274       .  A
O874      Zn1577   1.950   1_556  S
O874      Cd1343   2.000   1_565  S
O876       C1827   1.276       .  A
O880       C1336   1.274   1_565  A
C881       O1814   1.273   1_455  A
O882      Zn1813   2.015       .  S
C883       O1820   1.276   1_455  A
C886        N887   1.362       .  A
C886        N891   1.362       .  A
C886        C942   1.470       .  S
N887        C888   1.356       .  A
C888        N889   1.352       .  A
N889        C890   1.353       .  A
C890        N891   1.359       .  A
C892        N893   1.361       .  A
C892        N897   1.361       .  A
C892        C923   1.459       .  S
N893        C894   1.357       .  A
C894        N895   1.354       .  A
N895        C896   1.354       .  A
C896        N897   1.356       .  A
C898        N899   1.360       .  A
C898        N903   1.361       .  A
C898        C938   1.460       .  S
N899        C900   1.356       .  A
C900        N901   1.353       .  A
C900       C1805   1.457       .  S
N901        C902   1.353       .  A
C902        N903   1.359       .  A
C904        N905   1.362       .  A
C904        N909   1.364       .  A
C904        C943   1.470       .  S
N905        C906   1.357       .  A
C906        N907   1.354       .  A
N907        C908   1.353       .  A
C908        N909   1.357       .  A
C908       C1787   1.462   1_455  S
C910        N911   1.362       .  A
C910        N915   1.364       .  A
C910        C937   1.472       .  S
N911        C912   1.358       .  A
C912        N913   1.353       .  A
C912       C1775   1.459       .  S
N913        C914   1.353       .  A
C914        N915   1.358       .  A
C916        N917   1.361       .  A
C916        N921   1.362       .  A
C916        C940   1.462       .  S
N917        C918   1.357       .  A
C918        N919   1.352       .  A
N919        C920   1.353       .  A
C920        N921   1.359       .  A
C920       C1793   1.460   1_455  S
O922        C938   1.274       .  A
O922       Zn928   2.028       .  S
C923        O939   1.273       .  A
C923        O936   1.272       .  A
O924       C1881   1.276   1_455  A
O924       Cd931   2.082       .  S
O925        C943   1.273   1_655  A
O925      Cd1878   2.062       .  S
O926        C940   1.274       .  A
O926       Cd930   2.080       .  S
O927        C938   1.273       .  A
O927      Cd1874   2.064       .  S
Zn928       O939   2.015       .  S
Zn928       O941   2.018       .  S
Zn928       O933   1.949       .  S
O929       C1884   1.273       .  A
O929       Cd934   2.067       .  S
Cd930      O1871   2.064       .  S
Cd930       O932   2.063       .  S
Cd930      O1877   2.001   1_455  S
Cd931       O935   2.084       .  S
Cd931       O944   2.084       .  S
Cd931      O1877   2.008   1_455  S
O932        C942   1.274       .  A
O933      Cd1874   2.001       .  S
O933      Cd1875   2.008       .  S
O933       Cd934   2.001       .  S
Cd934      O1869   2.062       .  S
Cd934       O936   2.070       .  S
O935        C942   1.277       .  A
C937       O1868   1.276       .  A
C937        O941   1.274       .  A
C940       O1873   1.273       .  A
C943        O944   1.277       .  A
C945        N946   1.363       .  A
C945        N950   1.363       .  A
C945       C1001   1.470       .  S
N946        C947   1.356       .  A
C947        N948   1.353       .  A
C947       C1130   1.460       .  S
N948        C949   1.354       .  A
C949        N950   1.359       .  A
C949       C1014   1.460       .  S
C951        N952   1.361       .  A
C951        N956   1.360       .  A
C951        C982   1.460       .  S
N952        C953   1.358       .  A
C953        N954   1.353       .  A
C953       C1006   1.457       .  S
N954        C955   1.352       .  A
C955        N956   1.357       .  A
C955       C1126   1.457       .  S
C957        N958   1.361       .  A
C957        N962   1.363       .  A
C957        C997   1.463       .  S
N958        C959   1.356       .  A
C959        N960   1.353       .  A
C959       C1083   1.459       .  S
N960        C961   1.354       .  A
C961        N962   1.360       .  A
C961       C1150   1.462       .  S
C963        N964   1.363       .  A
C963        N968   1.362       .  A
C963        C996   1.471       .  S
N964        C965   1.358       .  A
C965        N966   1.353       .  A
C965       C1073   1.458       .  S
N966        C967   1.353       .  A
C967        N968   1.358       .  A
C967       C1018   1.458       .  S
C969        N970   1.362       .  A
C969       N1210   1.362   1_554  A
C969       C1002   1.468   1_554  S
N970        C971   1.358       .  A
C971        N972   1.353       .  A
C971       C1154   1.458       .  S
N972       C1209   1.353   1_554  A
C973       N1208   1.353       .  A
C973        N974   1.356       .  A
C973       C1065   1.458       .  S
N974       C1205   1.362       .  A
C975        N976   1.362       .  A
C975       N1216   1.361   1_554  A
C975       C1235   1.461   1_554  S
N976        C977   1.357       .  A
C977        N978   1.353       .  A
C977       C1030   1.460       .  S
N978       C1215   1.354   1_554  A
C979       N1214   1.354       .  A
C979        N980   1.358       .  A
C979       C1091   1.461       .  S
N980       C1211   1.361       .  A
O981        C997   1.275       .  A
O981       Zn987   2.037       .  S
C982        O998   1.274       .  A
C982        O995   1.272       .  A
O983        C996   1.275       .  A
O983      Cd1226   2.074       .  S
O984       C1238   1.273       .  A
O984       Cd993   2.061       .  S
O985       C1235   1.274   1_554  A
O985       Cd989   2.079       .  S
O986        C997   1.273       .  A
O986      Cd1225   2.064       .  S
Zn987       O998   2.023       .  S
Zn987      O1000   2.024       .  S
Zn987       O992   1.951       .  S
O988        C999   1.273       .  A
O988       Cd993   2.065       .  S
Cd989      O1222   2.064   1_554  S
Cd989       O991   2.067       .  S
Cd989      O1228   2.000   1_554  S
Cd990      O1219   2.074   1_554  S
Cd990       O994   2.081       .  S
Cd990      O1003   2.080       .  S
Cd990      O1228   2.008   1_554  S
O991       C1001   1.274       .  A
O992      Cd1225   2.000       .  S
O992      Cd1226   2.008       .  S
O992       Cd993   1.999       .  S
Cd993       O995   2.069       .  S
O994       C1001   1.276       .  A
C996       O1000   1.275       .  A
C999       C1211   1.461       .  S
C999       O1221   1.274       .  A
C1002      O1220   1.273       .  A
C1002      O1003   1.276   1_556  A
C1004      N1005   1.360       .  A
C1004      N1009   1.362       .  A
C1004      C1058   1.461       .  S
N1005      C1006   1.356       .  A
C1006      N1007   1.353       .  A
N1007      C1008   1.353       .  A
C1008      N1009   1.359       .  A
C1008      C1132   1.460       .  S
C1010      N1011   1.362       .  A
C1010      N1015   1.364       .  A
C1010      C1055   1.471       .  S
N1011      C1012   1.357       .  A
C1012      N1013   1.352       .  A
C1012      C1124   1.457       .  S
N1013      C1014   1.352       .  A
C1014      N1015   1.359       .  A
C1016      N1017   1.363       .  A
C1016      N1021   1.363       .  A
C1016      C1061   1.470       .  S
N1017      C1018   1.358       .  A
C1018      N1019   1.353       .  A
N1019      C1020   1.351       .  A
C1020      N1021   1.356       .  A
C1020      C1561   1.458       .  S
C1022      N1023   1.363       .  A
C1022      N1027   1.361       .  A
C1022      C1041   1.463       .  S
N1023      C1024   1.360       .  A
C1024      N1025   1.354       .  A
C1024      C1549   1.463       .  S
N1025      C1026   1.353       .  A
C1026      N1027   1.356       .  A
C1026      C1138   1.459       .  S
C1028      N1029   1.361       .  A
C1028      N1505   1.361       .  A
C1028      C1056   1.461       .  S
N1029      C1030   1.359       .  A
C1030      N1031   1.354       .  A
N1031      C1032   1.353       .  A
C1032      N1505   1.356       .  A
C1032      C1543   1.459   1_545  S
N1033      C1500   1.361       .  A
N1033      C1504   1.356       .  A
C1034      N1035   1.363   1_545  A
C1034      N1039   1.363       .  A
C1034      C1060   1.471       .  S
N1035      C1036   1.358   1_565  A
C1036      N1037   1.352       .  A
C1036      C1567   1.457   1_545  S
N1037      C1038   1.351       .  A
C1038      N1039   1.357       .  A
C1038      C1142   1.458       .  S
O1040      C1528   1.274       .  A
O1040     Zn1046   2.020       .  S
C1041      O1057   1.274       .  A
C1041      O1054   1.274       .  A
O1042      C1055   1.276       .  A
O1042     Cd1049   2.076       .  S
O1043      C1061   1.274       .  A
O1043     Cd1524   2.068       .  S
O1044      C1058   1.274       .  A
O1044     Cd1048   2.066       .  S
O1045      C1056   1.273       .  A
O1045     Cd1048   2.072       .  S
Zn1046     O1057   2.036       .  S
Zn1046     O1059   2.021       .  S
Zn1046     O1051   1.951       .  S
O1047      C1058   1.274       .  A
O1047     Cd1052   2.079       .  S
Cd1048     O1050   2.067       .  S
Cd1048     O1523   2.001   1_545  S
Cd1049     O1053   2.080       .  S
Cd1049     O1062   2.079       .  S
Cd1049     O1051   2.006       .  S
O1050      C1060   1.274       .  A
O1051     Cd1520   2.001       .  S
O1051     Cd1524   2.000       .  S
Cd1052     O1515   2.068   1_545  S
Cd1052     O1526   2.066   1_545  S
Cd1052     O1523   2.000   1_545  S
O1053      C1532   1.276       .  A
O1054     Cd1524   2.066       .  S
C1055      O1059   1.274       .  A
C1056      O1512   1.274   1_545  A
C1060      O1525   1.276   1_545  A
C1061      O1062   1.276       .  A
C1063      N1064   1.361       .  A
C1063      N1068   1.362       .  A
C1063      C1117   1.460       .  S
N1064      C1065   1.358       .  A
C1065      N1066   1.353       .  A
N1066      C1067   1.352       .  A
C1067      N1068   1.357       .  A
C1069      N1070   1.361       .  A
C1069      N1310   1.361   1_554  A
C1069      C1115   1.462   1_554  S
N1070      C1071   1.359       .  A
C1071      N1072   1.353       .  A
C1071      C1504   1.459       .  S
N1072      C1309   1.353   1_554  A
C1073      N1308   1.353       .  A
C1073      N1074   1.357       .  A
N1074      C1305   1.361       .  A
C1075      N1548   1.362       .  A
C1075      N1080   1.361       .  A
C1075      C1100   1.462       .  S
N1076      C1547   1.362       .  A
N1076      C1549   1.358       .  A
C1077      N1548   1.358       .  A
C1077      N1078   1.354       .  A
C1077      C1496   1.463   1_545  S
N1078      C1079   1.354       .  A
C1079      N1080   1.358       .  A
C1081      N1318   1.362   1_554  A
C1081      N1086   1.363       .  A
C1081      C1350   1.469   1_554  S
N1082      C1317   1.362       .  A
N1082      C1083   1.357       .  A
C1083      N1320   1.353       .  A
N1084      C1319   1.353   1_554  A
N1084      C1085   1.354       .  A
C1085      N1086   1.357       .  A
C1087      N1088   1.362   1_545  A
C1087      N1092   1.363       .  A
C1087      C1120   1.469       .  S
N1088      C1089   1.357   1_565  A
C1089      N1090   1.353       .  A
C1089      C1492   1.458   1_545  S
N1090      C1091   1.353       .  A
C1091      N1092   1.357       .  A
C1093      N1094   1.362       .  A
C1093      C1119   1.470       .  S
N1094      C1095   1.357       .  A
C1095      N1096   1.352       .  A
C1095      C1508   1.457       .  S
N1096      C1097   1.352       .  A
O1099      C1115   1.274   1_554  A
O1099     Zn1105   2.033       .  S
C1100      O1113   1.273       .  A
O1101      C1114   1.276       .  A
O1101     Cd1108   2.076       .  S
O1102      C1120   1.273       .  A
O1102     Cd1111   2.059       .  S
O1103      C1117   1.274       .  A
O1103     Cd1107   2.079       .  S
O1104      C1351   1.273       .  A
O1104     Cd1579   2.064       .  S
Zn1105     O1116   2.022       .  S
O1106     Cd1111   2.064       .  S
Cd1107     O1576   2.064   1_545  S
Cd1107     O1581   2.065   1_545  S
Cd1108     O1112   2.082       .  S
Cd1108     O1121   2.083       .  S
Cd1108     O1110   2.007       .  S
O1109      C1119   1.274       .  A
O1109     Cd1579   2.065       .  S
O1110     Cd1583   1.998       .  S
Cd1111     O1349   2.073       .  S
Cd1111     O1582   1.998   1_545  S
O1113     Cd1347   2.073   1_554  S
C1114      C1317   1.469       .  S
C1114      O1354   1.274       .  A
C1115      O1340   1.273       .  A
O1118      C1350   1.274   1_554  A
C1120      O1593   1.276   1_545  A
O1121      C1592   1.276       .  A
C1122      N1123   1.362       .  A
C1122      N1127   1.362       .  A
C1122      C1178   1.470       .  S
N1123      C1124   1.356       .  A
C1124      N1125   1.352       .  A
N1125      C1126   1.353       .  A
C1126      N1127   1.359       .  A
C1128      N1129   1.361       .  A
C1128      N1133   1.361       .  A
C1128      C1159   1.459       .  S
N1129      C1130   1.357       .  A
C1130      N1131   1.354       .  A
N1131      C1132   1.354       .  A
C1132      N1133   1.356       .  A
C1134      N1135   1.360       .  A
C1134      N1139   1.361       .  A
C1134      C1174   1.460       .  S
N1135      C1136   1.356       .  A
C1136      N1137   1.353       .  A
N1137      C1138   1.353       .  A
C1138      N1139   1.359       .  A
C1140      N1141   1.362       .  A
C1140      N1145   1.364       .  A
C1140      C1179   1.470       .  S
N1141      C1142   1.357       .  A
C1142      N1143   1.354       .  A
N1143      C1144   1.353       .  A
C1144      N1145   1.357       .  A
C1146      N1147   1.362       .  A
C1146      N1151   1.364       .  A
C1146      C1173   1.472       .  S
N1147      C1148   1.358       .  A
C1148      N1149   1.353       .  A
N1149      C1150   1.353       .  A
C1150      N1151   1.358       .  A
C1152      N1153   1.361       .  A
C1152      N1157   1.362       .  A
C1152      C1176   1.462       .  S
N1153      C1154   1.357       .  A
C1154      N1155   1.352       .  A
N1155      C1156   1.353       .  A
C1156      N1157   1.359       .  A
O1158      C1174   1.274       .  A
O1158     Zn1164   2.028       .  S
C1159      O1175   1.273       .  A
C1159      O1172   1.272       .  A
O1160     Cd1167   2.082       .  S
O1161      C1179   1.273       .  A
O1162      C1176   1.274       .  A
O1162     Cd1166   2.080       .  S
O1163      C1174   1.273   1_455  A
Zn1164     O1175   2.015       .  S
Zn1164     O1177   2.018       .  S
Zn1164     O1169   1.949       .  S
O1165     Cd1170   2.067   1_455  S
Cd1166     O1168   2.063       .  S
Cd1167     O1171   2.084       .  S
Cd1167     O1180   2.084       .  S
O1168      C1178   1.274       .  A
O1169     Cd1170   2.001       .  S
Cd1170     O1172   2.070       .  S
O1171      C1178   1.277       .  A
C1173      O1177   1.274       .  A
C1179      O1180   1.277       .  A
C1181      N1182   1.363       .  A
C1181      N1186   1.363       .  A
C1181      C1237   1.470       .  S
N1182      C1183   1.356       .  A
C1183      N1184   1.353       .  A
C1183      C1366   1.460       .  S
N1184      C1185   1.354       .  A
C1185      N1186   1.359       .  A
C1185      C1250   1.460       .  S
C1187      N1188   1.361       .  A
C1187      N1192   1.360       .  A
C1187      C1218   1.460       .  S
N1188      C1189   1.358       .  A
C1189      N1190   1.353       .  A
C1189      C1242   1.457       .  S
N1190      C1191   1.352       .  A
C1191      N1192   1.357       .  A
C1191      C1362   1.457       .  S
C1193      N1194   1.361       .  A
C1193      N1198   1.363       .  A
C1193      C1233   1.463       .  S
N1194      C1195   1.356       .  A
C1195      N1196   1.353       .  A
C1195      C1319   1.459       .  S
N1196      C1197   1.354       .  A
C1197      N1198   1.360       .  A
C1197      C1386   1.462       .  S
C1199      N1200   1.363       .  A
C1199      N1204   1.362       .  A
C1199      C1232   1.471       .  S
N1200      C1201   1.358       .  A
C1201      N1202   1.353       .  A
C1201      C1309   1.458       .  S
N1202      C1203   1.353       .  A
C1203      N1204   1.358       .  A
C1203      C1254   1.458       .  S
C1205      N1206   1.362       .  A
C1205      C1238   1.468       .  S
N1206      C1207   1.358       .  A
C1207      N1208   1.353       .  A
C1207      C1390   1.458       .  S
C1209      N1210   1.356       .  A
C1209      C1301   1.458       .  S
C1211      N1212   1.362       .  A
N1212      C1213   1.357       .  A
C1213      N1214   1.353       .  A
C1213      C1266   1.460       .  S
C1215      N1216   1.358       .  A
C1215      C1327   1.461       .  S
O1217      C1233   1.275       .  A
O1217     Zn1223   2.037       .  S
C1218      O1234   1.274       .  A
C1218      O1231   1.272       .  A
O1219      C1232   1.275       .  A
O1220     Cd1229   2.061       .  S
O1221     Cd1225   2.079       .  S
O1222      C1233   1.273       .  A
Zn1223     O1234   2.023       .  S
Zn1223     O1236   2.024       .  S
Zn1223     O1228   1.951       .  S
O1224      C1235   1.273       .  A
O1224     Cd1229   2.065       .  S
Cd1225     O1227   2.067       .  S
Cd1226     O1230   2.081       .  S
Cd1226     O1239   2.080       .  S
O1227      C1237   1.274       .  A
O1228     Cd1229   1.999       .  S
Cd1229     O1231   2.069       .  S
O1230      C1237   1.276       .  A
C1232      O1236   1.275       .  A
C1238      O1239   1.276       .  A
C1240      N1241   1.360       .  A
C1240      N1245   1.362       .  A
C1240      C1294   1.461       .  S
N1241      C1242   1.356       .  A
C1242      N1243   1.353       .  A
N1243      C1244   1.353       .  A
C1244      N1245   1.359       .  A
C1244      C1368   1.460       .  S
C1246      N1247   1.362       .  A
C1246      N1251   1.364       .  A
C1246      C1291   1.471       .  S
N1247      C1248   1.357       .  A
C1248      N1249   1.352       .  A
C1248      C1360   1.457       .  S
N1249      C1250   1.352       .  A
C1250      N1251   1.359       .  A
C1252      N1253   1.363       .  A
C1252      N1257   1.363       .  A
C1252      C1297   1.470       .  S
N1253      C1254   1.358       .  A
C1254      N1255   1.353       .  A
N1255      C1256   1.351       .  A
C1256      N1257   1.356       .  A
C1256      C1797   1.458       .  S
C1258      N1259   1.363       .  A
C1258      N1263   1.361       .  A
C1258      C1277   1.463       .  S
N1259      C1260   1.360       .  A
C1260      N1261   1.354       .  A
C1260      C1785   1.463       .  S
N1261      C1262   1.353       .  A
C1262      N1263   1.356       .  A
C1262      C1374   1.459       .  S
C1264      N1265   1.361       .  A
C1264      N1741   1.361       .  A
C1264      C1292   1.461       .  S
N1265      C1266   1.359       .  A
C1266      N1267   1.354       .  A
N1267      C1268   1.353       .  A
C1268      N1741   1.356       .  A
C1268      C1779   1.459   1_545  S
N1269      C1736   1.361       .  A
N1269      C1740   1.356       .  A
C1270      N1271   1.363   1_545  A
C1270      N1275   1.363       .  A
C1270      C1296   1.471       .  S
N1271      C1272   1.358   1_565  A
C1272      N1273   1.352       .  A
C1272      C1803   1.457   1_545  S
N1273      C1274   1.351       .  A
C1274      N1275   1.357       .  A
C1274      C1378   1.458       .  S
O1276      C1764   1.274       .  A
O1276     Zn1282   2.020       .  S
C1277      O1293   1.274       .  A
C1277      O1290   1.274       .  A
O1278      C1291   1.276       .  A
O1278     Cd1285   2.076       .  S
O1279      C1297   1.274       .  A
O1279     Cd1760   2.068       .  S
O1280      C1294   1.274       .  A
O1280     Cd1284   2.066       .  S
O1281      C1292   1.273       .  A
O1281     Cd1284   2.072       .  S
Zn1282     O1293   2.036       .  S
Zn1282     O1295   2.021       .  S
Zn1282     O1287   1.951       .  S
O1283      C1294   1.274       .  A
O1283     Cd1288   2.079       .  S
Cd1284     O1286   2.067       .  S
Cd1284     O1759   2.001   1_545  S
Cd1285     O1289   2.080       .  S
Cd1285     O1298   2.079       .  S
Cd1285     O1287   2.006       .  S
O1286      C1296   1.274       .  A
O1287     Cd1756   2.001       .  S
O1287     Cd1760   2.000       .  S
Cd1288     O1751   2.068   1_545  S
Cd1288     O1762   2.066   1_545  S
Cd1288     O1759   2.000   1_545  S
O1289      C1768   1.276       .  A
O1290     Cd1760   2.066       .  S
C1291      O1295   1.274       .  A
C1292      O1748   1.274   1_545  A
C1296      O1761   1.276   1_545  A
C1297      O1298   1.276       .  A
C1299      N1300   1.361       .  A
C1299      N1304   1.362       .  A
C1299      C1353   1.460       .  S
N1300      C1301   1.358       .  A
C1301      N1302   1.353       .  A
N1302      C1303   1.352       .  A
C1303      N1304   1.357       .  A
C1305      N1306   1.361       .  A
C1305      C1351   1.462       .  S
N1306      C1307   1.359       .  A
C1307      N1308   1.353       .  A
C1307      C1740   1.459       .  S
C1309      N1310   1.357       .  A
C1311      N1784   1.362       .  A
C1311      N1316   1.361       .  A
C1311      C1336   1.462       .  S
N1312      C1783   1.362       .  A
N1312      C1785   1.358       .  A
C1313      N1784   1.358       .  A
C1313      N1314   1.354       .  A
C1313      C1732   1.463   1_545  S
N1314      C1315   1.354       .  A
C1315      N1316   1.358       .  A
C1317      N1322   1.363       .  A
N1318      C1319   1.357       .  A
N1320      C1321   1.354       .  A
C1321      N1322   1.357       .  A
C1323      N1324   1.362   1_545  A
C1323      N1328   1.363       .  A
C1323      C1356   1.469       .  S
N1324      C1325   1.357   1_565  A
C1325      N1326   1.353       .  A
C1325      C1728   1.458   1_545  S
N1326      C1327   1.353       .  A
C1327      N1328   1.357       .  A
C1329      N1330   1.362       .  A
C1329      C1355   1.470       .  S
N1330      C1331   1.357       .  A
C1331      N1332   1.352       .  A
C1331      C1744   1.457       .  S
N1332      C1333   1.352       .  A
O1335      C1351   1.274       .  A
O1335     Zn1341   2.033       .  S
C1336      O1349   1.273       .  A
O1337      C1350   1.276       .  A
O1337     Cd1344   2.076       .  S
O1338      C1356   1.273       .  A
O1338     Cd1347   2.059       .  S
O1339      C1353   1.274       .  A
O1339     Cd1343   2.079       .  S
O1340     Cd1815   2.064       .  S
Zn1341     O1352   2.022       .  S
O1342     Cd1347   2.064       .  S
Cd1343     O1812   2.064   1_545  S
Cd1343     O1817   2.065   1_545  S
Cd1344     O1348   2.082       .  S
Cd1344     O1357   2.083       .  S
Cd1344     O1346   2.007       .  S
O1345      C1355   1.274       .  A
O1345     Cd1815   2.065       .  S
O1346     Cd1819   1.998       .  S
Cd1347     O1818   1.998   1_545  S
C1356      O1829   1.276   1_545  A
O1357      C1828   1.276       .  A
C1358      N1359   1.362       .  A
C1358      N1363   1.362       .  A
C1358      C1414   1.470       .  S
N1359      C1360   1.356       .  A
C1360      N1361   1.352       .  A
N1361      C1362   1.353       .  A
C1362      N1363   1.359       .  A
C1364      N1365   1.361       .  A
C1364      N1369   1.361       .  A
C1364      C1395   1.459       .  S
N1365      C1366   1.357       .  A
C1366      N1367   1.354       .  A
N1367      C1368   1.354       .  A
C1368      N1369   1.356       .  A
C1370      N1371   1.360       .  A
C1370      N1375   1.361       .  A
C1370      C1410   1.460       .  S
N1371      C1372   1.356       .  A
C1372      N1373   1.353       .  A
N1373      C1374   1.353       .  A
C1374      N1375   1.359       .  A
C1376      N1377   1.362       .  A
C1376      N1381   1.364       .  A
C1376      C1415   1.470       .  S
N1377      C1378   1.357       .  A
C1378      N1379   1.354       .  A
N1379      C1380   1.353       .  A
C1380      N1381   1.357       .  A
C1382      N1383   1.362       .  A
C1382      N1387   1.364       .  A
C1382      C1409   1.472       .  S
N1383      C1384   1.358       .  A
C1384      N1385   1.353       .  A
N1385      C1386   1.353       .  A
C1386      N1387   1.358       .  A
C1388      N1389   1.361       .  A
C1388      N1393   1.362       .  A
C1388      C1412   1.462       .  S
N1389      C1390   1.357       .  A
C1390      N1391   1.352       .  A
N1391      C1392   1.353       .  A
C1392      N1393   1.359       .  A
O1394      C1410   1.274       .  A
O1394     Zn1400   2.028       .  S
C1395      O1411   1.273       .  A
C1395      O1408   1.272       .  A
O1396     Cd1403   2.082       .  S
O1397      C1415   1.273       .  A
O1398      C1412   1.274       .  A
O1398     Cd1402   2.080       .  S
O1399      C1410   1.273   1_455  A
Zn1400     O1411   2.015       .  S
Zn1400     O1413   2.018       .  S
Zn1400     O1405   1.949       .  S
O1401     Cd1406   2.067   1_455  S
Cd1402     O1404   2.063       .  S
Cd1403     O1407   2.084       .  S
Cd1403     O1416   2.084       .  S
O1404      C1414   1.274       .  A
O1405     Cd1406   2.001       .  S
Cd1406     O1408   2.070       .  S
O1407      C1414   1.277       .  A
C1409      O1413   1.274       .  A
C1415      O1416   1.277       .  A
C1417      N1418   1.363       .  A
C1417      N1422   1.363       .  A
C1417      C1473   1.470       .  S
N1418      C1419   1.356       .  A
C1419      N1420   1.353       .  A
C1419      C1602   1.460       .  S
N1420      C1421   1.354       .  A
C1421      N1422   1.358       .  A
C1421      C1486   1.460       .  S
C1423      N1424   1.361       .  A
C1423      N1428   1.360       .  A
C1423      C1454   1.460       .  S
N1424      C1425   1.358       .  A
C1425      N1426   1.353       .  A
C1425      C1478   1.457       .  S
N1426      C1427   1.352       .  A
C1427      N1428   1.357       .  A
C1427      C1598   1.457       .  S
C1429      N1430   1.361       .  A
C1429      N1434   1.363       .  A
C1429      C1469   1.463       .  S
N1430      C1431   1.356       .  A
C1431      N1432   1.353       .  A
C1431      C1555   1.459       .  S
N1432      C1433   1.354       .  A
C1433      N1434   1.360       .  A
C1433      C1622   1.462       .  S
C1435      N1436   1.363       .  A
C1435      N1440   1.362       .  A
C1435      C1468   1.471       .  S
N1436      C1437   1.358       .  A
C1437      N1438   1.353       .  A
C1437      C1545   1.458       .  S
N1438      C1439   1.353       .  A
C1439      N1440   1.358       .  A
C1439      C1490   1.458       .  S
C1441      N1442   1.362       .  A
C1441      N1682   1.362   1_554  A
C1441      C1474   1.468   1_554  S
N1442      C1443   1.358       .  A
C1443      N1444   1.353       .  A
C1443      C1626   1.458       .  S
N1444      C1681   1.353   1_554  A
C1445      N1680   1.353       .  A
C1445      N1446   1.356       .  A
C1445      C1537   1.458       .  S
N1446      C1677   1.362       .  A
C1447      N1448   1.362       .  A
C1447      N1688   1.361   1_554  A
C1447      C1707   1.461   1_554  S
N1448      C1449   1.357       .  A
C1449      N1450   1.353       .  A
C1449      C1502   1.460       .  S
N1450      C1687   1.354   1_554  A
C1451      N1686   1.354       .  A
C1451      N1452   1.358       .  A
C1451      C1563   1.461       .  S
N1452      C1683   1.361       .  A
O1453      C1469   1.275       .  A
O1453     Zn1459   2.037       .  S
C1454      O1470   1.274       .  A
C1454      O1467   1.272       .  A
O1455      C1468   1.275       .  A
O1455     Cd1698   2.074       .  S
O1456      C1710   1.273       .  A
O1456     Cd1465   2.061       .  S
O1457      C1707   1.274   1_554  A
O1457     Cd1461   2.079       .  S
O1458      C1469   1.273       .  A
O1458     Cd1697   2.064       .  S
Zn1459     O1470   2.023       .  S
Zn1459     O1472   2.024       .  S
Zn1459     O1464   1.951       .  S
O1460      C1471   1.273       .  A
O1460     Cd1465   2.065       .  S
Cd1461     O1694   2.064   1_554  S
Cd1461     O1463   2.067       .  S
Cd1461     O1700   2.000   1_554  S
Cd1462     O1691   2.074   1_554  S
Cd1462     O1466   2.081       .  S
Cd1462     O1475   2.080       .  S
Cd1462     O1700   2.008   1_554  S
O1463      C1473   1.274       .  A
O1464     Cd1697   2.000       .  S
O1464     Cd1698   2.008       .  S
O1464     Cd1465   1.999       .  S
Cd1465     O1467   2.069       .  S
O1466      C1473   1.276       .  A
C1468      O1472   1.275       .  A
C1471      C1683   1.461       .  S
C1471      O1693   1.274       .  A
C1474      O1692   1.273       .  A
C1474      O1475   1.276   1_556  A
C1476      N1477   1.360       .  A
C1476      N1481   1.362       .  A
C1476      C1530   1.461       .  S
N1477      C1478   1.356       .  A
C1478      N1479   1.353       .  A
N1479      C1480   1.353       .  A
C1480      N1481   1.359       .  A
C1480      C1604   1.460       .  S
C1482      N1483   1.362       .  A
C1482      N1487   1.364       .  A
C1482      C1527   1.471       .  S
N1483      C1484   1.357       .  A
C1484      N1485   1.352       .  A
C1484      C1596   1.457       .  S
N1485      C1486   1.352       .  A
C1486      N1487   1.359       .  A
C1488      N1489   1.363       .  A
C1488      N1493   1.363       .  A
C1488      C1533   1.470       .  S
N1489      C1490   1.358       .  A
C1490      N1491   1.353       .  A
N1491      C1492   1.351       .  A
C1492      N1493   1.356       .  A
C1494      N1495   1.363       .  A
C1494      N1499   1.361       .  A
C1494      C1513   1.463       .  S
N1495      C1496   1.360       .  A
C1496      N1497   1.354       .  A
N1497      C1498   1.353       .  A
C1498      N1499   1.356       .  A
C1498      C1610   1.459       .  S
C1500      N1501   1.361       .  A
C1500      C1528   1.461       .  S
N1501      C1502   1.359       .  A
C1502      N1503   1.354       .  A
N1503      C1504   1.353       .  A
C1506      N1507   1.363       .  A
C1506      N1511   1.363       .  A
C1506      C1532   1.471       .  S
N1507      C1508   1.358       .  A
C1508      N1509   1.352       .  A
N1509      C1510   1.351       .  A
C1510      N1511   1.357       .  A
C1510      C1614   1.458       .  S
O1512     Zn1518   2.020       .  S
C1513      O1529   1.274       .  A
C1513      O1526   1.274       .  A
O1514      C1527   1.276       .  A
O1514     Cd1521   2.076       .  S
O1515      C1533   1.274       .  A
O1516      C1530   1.274       .  A
O1516     Cd1520   2.066       .  S
O1517      C1528   1.273       .  A
O1517     Cd1520   2.072       .  S
Zn1518     O1529   2.036       .  S
Zn1518     O1531   2.021       .  S
Zn1518     O1523   1.951       .  S
O1519      C1530   1.274       .  A
O1519     Cd1524   2.079       .  S
Cd1520     O1522   2.067       .  S
Cd1521     O1525   2.080       .  S
Cd1521     O1534   2.079       .  S
Cd1521     O1523   2.006       .  S
O1522      C1532   1.274       .  A
C1527      O1531   1.274       .  A
C1533      O1534   1.276       .  A
C1535      N1536   1.361       .  A
C1535      N1540   1.362       .  A
C1535      C1589   1.460       .  S
N1536      C1537   1.358       .  A
C1537      N1538   1.353       .  A
N1538      C1539   1.352       .  A
C1539      N1540   1.357       .  A
C1541      N1542   1.361       .  A
C1541      N1782   1.361   1_554  A
C1541      C1587   1.462   1_554  S
N1542      C1543   1.359       .  A
C1543      N1544   1.353       .  A
N1544      C1781   1.353   1_554  A
C1545      N1780   1.353       .  A
C1545      N1546   1.357       .  A
N1546      C1777   1.361       .  A
C1547      N1552   1.361       .  A
C1547      C1572   1.462       .  S
C1549      N1550   1.354       .  A
N1550      C1551   1.354       .  A
C1551      N1552   1.358       .  A
C1553      N1790   1.362   1_554  A
C1553      N1558   1.363       .  A
C1553      C1822   1.469   1_554  S
N1554      C1789   1.362       .  A
N1554      C1555   1.357       .  A
C1555      N1792   1.353       .  A
N1556      C1791   1.353   1_554  A
N1556      C1557   1.354       .  A
C1557      N1558   1.357       .  A
C1559      N1560   1.362       .  A
C1559      N1564   1.363       .  A
C1559      C1592   1.469       .  S
N1560      C1561   1.357       .  A
C1561      N1562   1.353       .  A
N1562      C1563   1.353       .  A
C1563      N1564   1.357       .  A
C1565      N1566   1.362       .  A
C1565      C1591   1.470       .  S
N1566      C1567   1.357       .  A
C1567      N1568   1.352       .  A
N1568      C1569   1.352       .  A
O1571      C1587   1.274   1_554  A
O1571     Zn1577   2.033       .  S
C1572      O1585   1.273       .  A
O1573      C1586   1.276       .  A
O1573     Cd1580   2.076       .  S
O1574      C1592   1.273       .  A
O1574     Cd1583   2.059       .  S
O1575      C1589   1.274       .  A
O1575     Cd1579   2.079       .  S
O1576      C1823   1.273       .  A
Zn1577     O1588   2.022       .  S
O1578     Cd1583   2.064       .  S
Cd1580     O1584   2.082       .  S
Cd1580     O1593   2.083       .  S
Cd1580     O1582   2.007       .  S
O1581      C1591   1.274       .  A
Cd1583     O1821   2.073       .  S
O1585     Cd1819   2.073   1_554  S
C1586      C1789   1.469       .  S
C1586      O1826   1.274       .  A
C1587      O1812   1.273       .  A
O1590      C1822   1.274   1_554  A
C1594      N1595   1.362       .  A
C1594      N1599   1.362       .  A
C1594      C1650   1.470       .  S
N1595      C1596   1.356       .  A
C1596      N1597   1.352       .  A
N1597      C1598   1.353       .  A
C1598      N1599   1.359       .  A
C1600      N1601   1.361       .  A
C1600      N1605   1.361       .  A
C1600      C1631   1.459       .  S
N1601      C1602   1.357       .  A
C1602      N1603   1.354       .  A
N1603      C1604   1.354       .  A
C1604      N1605   1.356       .  A
C1606      N1607   1.360       .  A
C1606      N1611   1.361       .  A
C1606      C1646   1.460       .  S
N1607      C1608   1.356       .  A
C1608      N1609   1.353       .  A
N1609      C1610   1.353       .  A
C1610      N1611   1.359       .  A
C1612      N1613   1.362       .  A
C1612      N1617   1.364       .  A
C1612      C1651   1.470       .  S
N1613      C1614   1.357       .  A
C1614      N1615   1.354       .  A
N1615      C1616   1.353       .  A
C1616      N1617   1.357       .  A
C1618      N1619   1.362       .  A
C1618      N1623   1.364       .  A
C1618      C1645   1.472       .  S
N1619      C1620   1.358       .  A
C1620      N1621   1.353       .  A
N1621      C1622   1.353       .  A
C1622      N1623   1.358       .  A
C1624      N1625   1.361       .  A
C1624      N1629   1.362       .  A
C1624      C1648   1.462       .  S
N1625      C1626   1.357       .  A
C1626      N1627   1.352       .  A
N1627      C1628   1.353       .  A
C1628      N1629   1.359       .  A
O1630      C1646   1.274       .  A
O1630     Zn1636   2.028       .  S
C1631      O1647   1.273       .  A
C1631      O1644   1.272       .  A
O1632     Cd1639   2.082       .  S
O1633      C1651   1.273       .  A
O1634      C1648   1.274       .  A
O1634     Cd1638   2.080       .  S
O1635      C1646   1.273   1_455  A
Zn1636     O1647   2.015       .  S
Zn1636     O1649   2.018       .  S
Zn1636     O1641   1.949       .  S
O1637     Cd1642   2.067   1_455  S
Cd1638     O1640   2.063       .  S
Cd1639     O1643   2.084       .  S
Cd1639     O1652   2.084       .  S
O1640      C1650   1.274       .  A
O1641     Cd1642   2.001       .  S
Cd1642     O1644   2.070       .  S
O1643      C1650   1.277       .  A
C1645      O1649   1.274       .  A
C1651      O1652   1.277       .  A
C1653      N1654   1.363       .  A
C1653      N1658   1.363       .  A
C1653      C1709   1.470       .  S
N1654      C1655   1.356       .  A
C1655      N1656   1.353       .  A
C1655      C1838   1.460       .  S
N1656      C1657   1.354       .  A
C1657      N1658   1.358       .  A
C1657      C1722   1.460       .  S
C1659      N1660   1.361       .  A
C1659      N1664   1.360       .  A
C1659      C1690   1.460       .  S
N1660      C1661   1.358       .  A
C1661      N1662   1.353       .  A
C1661      C1714   1.457       .  S
N1662      C1663   1.352       .  A
C1663      N1664   1.357       .  A
C1663      C1834   1.457       .  S
C1665      N1666   1.361       .  A
C1665      N1670   1.363       .  A
C1665      C1705   1.463       .  S
N1666      C1667   1.356       .  A
C1667      N1668   1.353       .  A
C1667      C1791   1.459       .  S
N1668      C1669   1.354       .  A
C1669      N1670   1.360       .  A
C1669      C1858   1.462       .  S
C1671      N1672   1.363       .  A
C1671      N1676   1.362       .  A
C1671      C1704   1.471       .  S
N1672      C1673   1.358       .  A
C1673      N1674   1.352       .  A
C1673      C1781   1.458       .  S
N1674      C1675   1.353       .  A
C1675      N1676   1.358       .  A
C1675      C1726   1.458       .  S
C1677      N1678   1.362       .  A
C1677      C1710   1.468       .  S
N1678      C1679   1.358       .  A
C1679      N1680   1.353       .  A
C1679      C1862   1.458       .  S
C1681      N1682   1.356       .  A
C1681      C1773   1.458       .  S
C1683      N1684   1.362       .  A
N1684      C1685   1.357       .  A
C1685      N1686   1.353       .  A
C1685      C1738   1.460       .  S
C1687      N1688   1.358       .  A
C1687      C1799   1.461       .  S
O1689      C1705   1.275       .  A
O1689     Zn1695   2.037       .  S
C1690      O1706   1.274       .  A
C1690      O1703   1.272       .  A
O1691      C1704   1.275       .  A
O1692     Cd1701   2.061       .  S
O1693     Cd1697   2.079       .  S
O1694      C1705   1.273       .  A
Zn1695     O1706   2.023       .  S
Zn1695     O1708   2.024       .  S
Zn1695     O1700   1.951       .  S
O1696      C1707   1.273       .  A
O1696     Cd1701   2.065       .  S
Cd1697     O1699   2.067       .  S
Cd1698     O1702   2.081       .  S
Cd1698     O1711   2.080       .  S
O1699      C1709   1.274       .  A
O1700     Cd1701   1.999       .  S
Cd1701     O1703   2.069       .  S
O1702      C1709   1.276       .  A
C1704      O1708   1.275       .  A
C1710      O1711   1.276       .  A
C1712      N1713   1.360       .  A
C1712      N1717   1.362       .  A
C1712      C1766   1.461       .  S
N1713      C1714   1.356       .  A
C1714      N1715   1.353       .  A
N1715      C1716   1.353       .  A
C1716      N1717   1.359       .  A
C1716      C1840   1.460       .  S
C1718      N1719   1.362       .  A
C1718      N1723   1.364       .  A
C1718      C1763   1.471       .  S
N1719      C1720   1.357       .  A
C1720      N1721   1.352       .  A
C1720      C1832   1.457       .  S
N1721      C1722   1.352       .  A
C1722      N1723   1.359       .  A
C1724      N1725   1.363       .  A
C1724      N1729   1.363       .  A
C1724      C1769   1.470       .  S
N1725      C1726   1.358       .  A
C1726      N1727   1.353       .  A
N1727      C1728   1.351       .  A
C1728      N1729   1.356       .  A
C1730      N1731   1.363       .  A
C1730      N1735   1.361       .  A
C1730      C1749   1.463       .  S
N1731      C1732   1.360       .  A
C1732      N1733   1.354       .  A
N1733      C1734   1.353       .  A
C1734      N1735   1.356       .  A
C1734      C1846   1.459       .  S
C1736      N1737   1.361       .  A
C1736      C1764   1.461       .  S
N1737      C1738   1.359       .  A
C1738      N1739   1.354       .  A
N1739      C1740   1.353       .  A
C1742      N1743   1.363       .  A
C1742      N1747   1.363       .  A
C1742      C1768   1.471       .  S
N1743      C1744   1.358       .  A
C1744      N1745   1.352       .  A
N1745      C1746   1.351       .  A
C1746      N1747   1.357       .  A
C1746      C1850   1.458       .  S
O1748     Zn1754   2.020       .  S
C1749      O1765   1.274       .  A
C1749      O1762   1.274       .  A
O1750      C1763   1.276       .  A
O1750     Cd1757   2.076       .  S
O1751      C1769   1.274       .  A
O1752      C1766   1.274       .  A
O1752     Cd1756   2.066       .  S
O1753      C1764   1.273       .  A
O1753     Cd1756   2.072       .  S
Zn1754     O1765   2.036       .  S
Zn1754     O1767   2.021       .  S
Zn1754     O1759   1.951       .  S
O1755      C1766   1.274       .  A
O1755     Cd1760   2.079       .  S
Cd1756     O1758   2.067       .  S
Cd1757     O1761   2.080       .  S
Cd1757     O1770   2.079       .  S
Cd1757     O1759   2.006       .  S
O1758      C1768   1.274       .  A
C1763      O1767   1.274       .  A
C1769      O1770   1.276       .  A
C1771      N1772   1.361       .  A
C1771      N1776   1.362       .  A
C1771      C1825   1.460       .  S
N1772      C1773   1.358       .  A
C1773      N1774   1.353       .  A
N1774      C1775   1.352       .  A
C1775      N1776   1.357       .  A
C1777      N1778   1.361       .  A
C1777      C1823   1.462       .  S
N1778      C1779   1.359       .  A
C1779      N1780   1.353       .  A
C1781      N1782   1.357       .  A
C1783      N1788   1.361       .  A
C1783      C1808   1.462       .  S
C1785      N1786   1.354       .  A
N1786      C1787   1.354       .  A
C1787      N1788   1.358       .  A
C1789      N1794   1.363       .  A
N1790      C1791   1.357       .  A
N1792      C1793   1.354       .  A
C1793      N1794   1.357       .  A
C1795      N1796   1.362       .  A
C1795      N1800   1.363       .  A
C1795      C1828   1.469       .  S
N1796      C1797   1.357       .  A
C1797      N1798   1.353       .  A
N1798      C1799   1.353       .  A
C1799      N1800   1.357       .  A
C1801      N1802   1.362       .  A
C1801      C1827   1.470       .  S
N1802      C1803   1.357       .  A
C1803      N1804   1.352       .  A
N1804      C1805   1.352       .  A
O1807      C1823   1.274       .  A
O1807     Zn1813   2.033       .  S
C1808      O1821   1.273       .  A
O1809      C1822   1.276       .  A
O1809     Cd1816   2.076       .  S
O1810      C1828   1.273       .  A
O1810     Cd1819   2.059       .  S
O1811      C1825   1.274       .  A
O1811     Cd1815   2.079       .  S
Zn1813     O1824   2.022       .  S
O1814     Cd1819   2.064       .  S
Cd1816     O1820   2.082       .  S
Cd1816     O1829   2.083       .  S
Cd1816     O1818   2.007       .  S
O1817      C1827   1.274       .  A
C1830      N1831   1.362       .  A
C1830      N1835   1.362       .  A
C1830      C1886   1.470       .  S
N1831      C1832   1.356       .  A
C1832      N1833   1.352       .  A
N1833      C1834   1.353       .  A
C1834      N1835   1.359       .  A
C1836      N1837   1.361       .  A
C1836      N1841   1.361       .  A
C1836      C1867   1.459       .  S
N1837      C1838   1.357       .  A
C1838      N1839   1.354       .  A
N1839      C1840   1.354       .  A
C1840      N1841   1.356       .  A
C1842      N1843   1.360       .  A
C1842      N1847   1.361       .  A
C1842      C1882   1.460       .  S
N1843      C1844   1.356       .  A
C1844      N1845   1.353       .  A
N1845      C1846   1.353       .  A
C1846      N1847   1.359       .  A
C1848      N1849   1.362       .  A
C1848      N1853   1.364       .  A
C1848      C1887   1.470       .  S
N1849      C1850   1.357       .  A
C1850      N1851   1.354       .  A
N1851      C1852   1.353       .  A
C1852      N1853   1.357       .  A
C1854      N1855   1.362       .  A
C1854      N1859   1.364       .  A
C1854      C1881   1.472       .  S
N1855      C1856   1.358       .  A
C1856      N1857   1.353       .  A
N1857      C1858   1.353       .  A
C1858      N1859   1.358       .  A
C1860      N1861   1.361       .  A
C1860      N1865   1.362       .  A
C1860      C1884   1.462       .  S
N1861      C1862   1.357       .  A
C1862      N1863   1.352       .  A
N1863      C1864   1.353       .  A
C1864      N1865   1.359       .  A
O1866      C1882   1.274       .  A
O1866     Zn1872   2.028       .  S
C1867      O1883   1.273       .  A
C1867      O1880   1.272       .  A
O1868     Cd1875   2.082       .  S
O1869      C1887   1.273       .  A
O1870      C1884   1.274       .  A
O1870     Cd1874   2.080       .  S
O1871      C1882   1.273   1_455  A
Zn1872     O1883   2.015       .  S
Zn1872     O1885   2.018       .  S
Zn1872     O1877   1.949       .  S
O1873     Cd1878   2.067   1_455  S
Cd1874     O1876   2.063       .  S
Cd1875     O1879   2.084       .  S
Cd1875     O1888   2.084       .  S
O1876      C1886   1.274       .  A
O1877     Cd1878   2.001       .  S
Cd1878     O1880   2.070       .  S
O1879      C1886   1.277       .  A
C1881      O1885   1.274       .  A
C1887      O1888   1.277       .  A
