geometry optimzed in LAMMPS
_audit_creation_date              2020-12-01 
_audit_creation_method            'lammps2cif' 
_symmetry_space_group_name_H-M    'P1' 
_symmetry_Int_Tables_number       1 
_symmetry_cell_setting            triclinic 
loop_ 
_symmetry_equiv_pos_as_xyz 
  x,y,z 
_cell_length_a                    30.6385753 
_cell_length_b                    32.074742491981546 
_cell_length_c                    36.284203444372125 
_cell_angle_alpha                 89.95233039659094 
_cell_angle_beta                  89.50861930562418 
_cell_angle_gamma                 90.36146800120281 
loop_ 
_atom_site_label 
_atom_site_type_symbol 
_atom_site_fract_x 
_atom_site_fract_y 
_atom_site_fract_z 
_atom_site_charge 
O1          O  0.40974941  0.52195241  0.23277100    -0.77600
C2          C  0.49839874  0.49346403  0.14932468     0.83400
O3          O  0.48534312  0.39909430  0.27499192    -0.78700
O4          O  0.09244087  0.97295518  0.23505731    -0.80200
O5          O  0.01563685  0.09970945  0.26623014    -0.80000
O6          O  0.41243866  0.02817983  0.29236626    -0.78600
Zn7        Zn  0.45298780  0.48037888  0.22273432     1.55700
O8          O  0.06869660  0.07203707  0.23078405    -0.80000
Cd9        Cd  0.48038536  0.04533551  0.28655382     1.59700
Cd10       Cd  0.01855107  0.45552873  0.28954298     1.59600
O11         O  0.50078981  0.03734878  0.34068999    -0.80000
O12         O  0.49920420  0.49850568  0.25383257    -1.90500
Cd13       Cd  0.04696774  0.01303172  0.21971233     1.59900
O14         O  0.99650463  0.46825868  0.34193351    -0.80000
O15         O  0.03354626  0.00514604  0.16466074    -0.78600
C16         C  0.44830851  0.39489030  0.25862513     0.83900
C17         C  0.39361903  0.01346822  0.26394094     0.83600
O18         O  0.46487998  0.48273503  0.16801285    -0.77600
C19         C  0.05205552  0.10269251  0.24793676     0.84400
O20         O  0.43155338  0.42414097  0.23976957    -0.77700
C21         C  0.99864617  0.00312975  0.35848900     0.84500
C22         C  0.10647564  0.48420101  0.26613042     0.84800
O23         O  0.08590531  0.47220233  0.29493348    -0.80100
O24         O  0.21655097  0.49133041  0.16830900    -0.77600
C25         C  0.19748619  0.39696732  0.25050935     0.83400
O26         O  0.16184928  0.02778744  0.29529699    -0.78700
O27         O  0.24706039  0.46218089  0.34225211    -0.80200
O28         O  0.34010930  0.97486350  0.23349917    -0.80000
O29         O  0.28459023  0.01551625  0.16683247    -0.78600
Zn30       Zn  0.20281717  0.48533659  0.22241832     1.55700
O31         O  0.33619094  0.47088799  0.29323268    -0.80000
Cd32       Cd  0.29636544  0.01818784  0.22257286     1.59700
Cd33       Cd  0.22952210  0.04383411  0.29037640     1.59600
O34         O  0.31873052  0.07536650  0.23995910    -0.80000
O35         O  0.24859163  0.49984229  0.25524885    -1.90500
Cd36       Cd  0.26821088  0.45381269  0.28822944     1.59900
O37         O  0.26359412  0.09997388  0.27488019    -0.80000
O38         O  0.23387256  0.39933888  0.26831620    -0.78600
C39         C  0.14308506  0.01467648  0.26628712     0.83900
C40         C  0.25024927  0.50343119  0.15052907     0.83600
O41         O  0.18127098  0.42811723  0.23399616    -0.77600
C42         C  0.35590007  0.48407775  0.26437428     0.84400
O43         O  0.15875255  0.52525255  0.23537622    -0.77700
C44         C  0.30103677  0.10442266  0.25861264     0.84500
C45         C  0.24847573  0.99648990  0.35985037     0.84800
O46         O  0.25014934  0.03137586  0.34313651    -0.80100
O47         O  0.09775863  0.22864642  0.15125343    -0.77600
C48         C  0.07595520  0.14279186  0.24473732     0.83400
O49         O  0.03591728  0.27696250  0.27512026    -0.78700
O50         O  0.13148064  0.21561657  0.32601392    -0.80200
O51         O  0.21721488  0.23342059  0.21467590    -0.80000
O52         O  0.15268839  0.27436605  0.15015542    -0.78600
Zn53       Zn  0.08129241  0.22690624  0.20622999     1.55700
O54         O  0.21344639  0.22090566  0.27412855    -0.80000
Cd55       Cd  0.16919314  0.27353739  0.20576247     1.59700
Cd56       Cd  0.10220758  0.29400427  0.27218123     1.59600
O57         O  0.19167933  0.32961509  0.22580072    -0.80000
O58         O  0.12437488  0.24940520  0.23870271    -1.90500
Cd59       Cd  0.14690313  0.20481532  0.27183709     1.59900
O60         O  0.13591322  0.35132324  0.26102728    -0.80000
O61         O  0.11296743  0.14792384  0.26077640    -0.78600
C62         C  0.01802341  0.25911721  0.24772454     0.83900
C63         C  0.12495323  0.25153056  0.13344063     0.83600
O64         O  0.05998483  0.17066073  0.22393653    -0.77600
C65         C  0.23222347  0.23852208  0.24676433     0.84400
O66         O  0.03360004  0.26465999  0.21563059    -0.77700
C67         C  0.17396686  0.35692318  0.24630644     0.84500
C68         C  0.12472970  0.24961818  0.34295624     0.84800
O69         O  0.11776497  0.28357197  0.32611244    -0.80100
O70         O  0.35234654  0.22136058  0.16940108    -0.77600
C71         C  0.32424935  0.14486582  0.25875548     0.83400
O72         O  0.28304551  0.28070531  0.28178113    -0.78700
O73         O  0.38305258  0.21526134  0.34361895    -0.80200
O74         O  0.45828779  0.22448714  0.22293562    -0.80000
O75         O  0.39696812  0.27585343  0.16724399    -0.78600
Zn76       Zn  0.33335799  0.22755569  0.22222227     1.55700
O77         O  0.46537619  0.21798251  0.28257082    -0.80000
Cd78       Cd  0.41639079  0.27102868  0.22100680     1.59700
Cd79       Cd  0.35065038  0.29438168  0.28810329     1.59600
O80         O  0.44324439  0.32519879  0.24032731    -0.80000
O81         O  0.37401223  0.24894633  0.25657704    -1.90500
Cd82       Cd  0.39756057  0.20396414  0.28815471     1.59900
O83         O  0.38711094  0.35005455  0.27367629    -0.80000
O84         O  0.36243150  0.14839695  0.27328084    -0.78600
C85         C  0.27015515  0.26639169  0.25086448     0.83900
C86         C  0.37418047  0.24825804  0.15121201     0.83600
O87         O  0.30657385  0.17474099  0.24146686    -0.77600
C88         C  0.47991714  0.23128517  0.25160377     0.84400
O89         O  0.29293216  0.27289395  0.22246711    -0.77700
C90         C  0.42518083  0.35437578  0.25842498     0.84500
C91         C  0.37215166  0.24836048  0.36081734     0.84800
O92         O  0.36232573  0.28182997  0.34375329    -0.80100
O93         O  0.02841981  0.47935287  0.09073614    -0.77600
C94         C  0.05116850  0.39616496  0.99774336     0.83400
O95         O  0.08609154  0.02914651  0.46904159    -0.78700
O96         O  0.49678045  0.46804722  0.41537385    -0.80200
O97         O  0.40657003  0.47148227  0.02473333    -0.80000
O98         O  0.46332839  0.00929064  0.09343412    -0.78600
Zn99       Zn  0.04214525  0.47904075  0.03657898     1.55700
O100        O  0.40998637  0.46884526  0.46480092    -0.80000
Cd101      Cd  0.45042896  0.01451532  0.03785577     1.59700
Cd102      Cd  0.01842214  0.04468137  0.47159425     1.59600
O103        O  0.42837619  0.07240798  0.02285535    -0.80000
O104        O  0.99764604  0.49802271  0.00407582    -1.90500
Cd105      Cd  0.47786226  0.45472853  0.46853318     1.59900
O106        O  0.48406388  0.09927844  0.48948098    -0.80000
O107        O  0.01468548  0.40021036  0.48054775    -0.78600
C108        C  0.10309365  0.01430905  0.99814174     0.83900
C109        C  0.99636904  0.49361560  0.10911676     0.83600
O110        O  0.06572774  0.42422861  0.01925985    -0.77600
C111        C  0.39101624  0.48165504  0.49399108     0.84400
O112        O  0.08520695  0.52191197  0.02876802    -0.77700
C113        C  0.44636562  0.10250308  0.50545056     0.84500
C114        C  0.49873314  0.00302169  0.39894561     0.84800
O115        O  0.00069218  0.03714015  0.41675516    -0.80100
O116        O  0.28106812  0.48759349  0.09235335    -0.77600
C117        C  0.29592931  0.39492860  0.00580646     0.83400
O118        O  0.33679084  0.02659551  0.46572425    -0.78700
O119        O  0.24556598  0.46218736  0.41789391    -0.80200
O120        O  0.15706035  0.47783781  0.02948888    -0.80000
O121        O  0.21641460  0.01853493  0.09418770    -0.78600
Zn122      Zn  0.29392112  0.48216387  0.03776479     1.55700
O123        O  0.15932371  0.47139530  0.46964425    -0.80000
Cd124      Cd  0.20288783  0.02025572  0.03891425     1.59700
Cd125      Cd  0.26952275  0.04310825  0.47019170     1.59600
O126        O  0.18058733  0.07709438  0.02141584    -0.80000
O127        O  0.24879505  0.49959752  0.00540665    -1.90500
Cd128      Cd  0.22652303  0.45434221  0.47250639     1.59900
O129        O  0.23399654  0.09858639  0.48288683    -0.80000
O130        O  0.25891059  0.39866757  0.48941454    -0.78600
C131        C  0.35484499  0.01207090  0.99447309     0.83900
C132        C  0.24930975  0.50329185  0.11029639     0.83600
O133        O  0.31342449  0.42480276  0.02354145    -0.77600
C134        C  0.14076373  0.48572547  0.49849497     0.84400
O135        O  0.33925011  0.52164120  0.02559749    -0.77700
C136        C  0.19719195  0.10427942  0.49984411     0.84500
C137        C  0.24818439  0.99646092  0.40029879     0.84800
O138        O  0.25061111  0.03121000  0.41695716    -0.80100
O139        O  0.06329170  0.33085688  0.47029265    -0.76800
C140        C  0.12516278  0.24962118  0.38305011     0.83400
O141        O  0.03410708  0.21989608  0.01434275    -0.78700
O142        O  0.18903351  0.16961992  0.47162892    -0.80200
O143        O  0.21603357  0.28511821  0.01435245    -0.80000
O144        O  0.11321980  0.35253334  0.01045342    -0.78600
Zn145      Zn  0.08426306  0.27575392  0.45344679     1.55700
O146        O  0.21677050  0.26436569  0.45644523    -0.80000
Cd147      Cd  0.14897159  0.29643086  0.01952551     1.59700
Cd148      Cd  0.10052939  0.20680743  0.01987284     1.59600
O149        O  0.13928649  0.28337549  0.07535187    -0.80000
O150        O  0.12457333  0.25133109  0.48754744    -1.90500
Cd151      Cd  0.16659235  0.22520304  0.45315331     1.59900
O152        O  0.10967776  0.21987607  0.07563692    -0.80000
O153        O  0.14642474  0.22156248  0.39966170    -0.78600
C154        C  0.01587725  0.24000834  0.48817511     0.83900
C155        C  0.07748306  0.35795360  0.49267825     0.83600
O156        O  0.10431257  0.27758521  0.40054979    -0.77600
C157        C  0.23243641  0.26292600  0.98850212     0.84400
O158        O  0.03255703  0.24112860  0.45619530    -0.77700
C159        C  0.12451043  0.25161632  0.09265257     0.84500
C160        C  0.17269839  0.14340309  0.99401687     0.84800
O161        O  0.13616417  0.15013994  0.01091377    -0.80100
O162        O  0.40320121  0.23136400  0.09297349    -0.77600
C163        C  0.42276576  0.14244928  0.00540179     0.83400
O164        O  0.45554383  0.28231924  0.47011050    -0.78700
O165        O  0.37188175  0.21334014  0.41883253    -0.80200
O166        O  0.27793977  0.22731136  0.02991886    -0.80000
O167        O  0.33997157  0.26509137  0.09567345    -0.78600
Zn168      Zn  0.41681635  0.22862412  0.03867512     1.55700
O169        O  0.28546946  0.21186416  0.47119830    -0.80000
Cd170      Cd  0.32471871  0.26810755  0.04072718     1.59700
Cd171      Cd  0.38822325  0.29397846  0.47317369     1.59600
O172        O  0.30208569  0.32570980  0.02573331    -0.80000
O173        O  0.37108164  0.24780011  0.00713268    -1.90500
Cd174      Cd  0.35303109  0.20147092  0.47343745     1.59900
O175        O  0.35516564  0.34996022  0.48855416    -0.80000
O176        O  0.38612989  0.14588009  0.48858461    -0.78600
C177        C  0.47671144  0.26465890  0.99595431     0.83900
C178        C  0.37231447  0.24805674  0.11121476     0.83600
O179        O  0.43894679  0.17230975  0.02388399    -0.77600
C180        C  0.26592238  0.23167327  0.49694681     0.84400
O181        O  0.46351334  0.26712261  0.02892483    -0.77700
C182        C  0.31882910  0.35461706  0.50618296     0.84500
C183        C  0.37112548  0.24802846  0.40161574     0.84800
O184        O  0.36971698  0.28254663  0.41894092    -0.80100
O185        O  0.40974941  0.52195267  0.73277090    -0.77600
C186        C  0.49839862  0.49346410  0.64932459     0.83400
O187        O  0.48534304  0.39909467  0.77499194    -0.78700
O188        O  0.09244088  0.97295527  0.73505724    -0.80200
O189        O  0.01563681  0.09970958  0.76622996    -0.80000
O190        O  0.41243877  0.02818004  0.79236616    -0.78600
Zn191      Zn  0.45298761  0.48037900  0.72273425     1.55700
O192        O  0.06869669  0.07203716  0.73078404    -0.80000
Cd193      Cd  0.48038540  0.04533562  0.78655370     1.59700
Cd194      Cd  0.01855090  0.45552883  0.78954300     1.59600
O195        O  0.50078974  0.03734896  0.84068984    -0.80000
O196        O  0.49920400  0.49850559  0.75383258    -1.90500
Cd197      Cd  0.04696774  0.01303179  0.71971233     1.59900
O198        O  0.99650447  0.46825878  0.84193346    -0.80000
O199        O  0.03354599  0.00514606  0.66466072    -0.78600
C200        C  0.44830863  0.39489040  0.75862532     0.83900
C201        C  0.39361924  0.01346836  0.76394084     0.83600
O202        O  0.46487991  0.48273515  0.66801268    -0.77600
C203        C  0.05205567  0.10269260  0.74793671     0.84400
O204        O  0.43155326  0.42414114  0.73976955    -0.77700
C205        C  0.99864619  0.00312978  0.85848888     0.84500
C206        C  0.10647548  0.48420106  0.76613051     0.84800
O207        O  0.08590506  0.47220241  0.79493347    -0.80100
O208        O  0.21655093  0.49133040  0.66830895    -0.77600
C209        C  0.19748622  0.39696737  0.75050943     0.83400
O210        O  0.16184939  0.02778751  0.79529715    -0.78700
O211        O  0.24706050  0.46218093  0.84225213    -0.80200
O212        O  0.34010955  0.97486344  0.73349913    -0.80000
O213        O  0.28459046  0.01551629  0.66683252    -0.78600
Zn214      Zn  0.20281716  0.48533664  0.72241839     1.55700
O215        O  0.33619108  0.47088820  0.79323264    -0.80000
Cd216      Cd  0.29636553  0.01818775  0.72257294     1.59700
Cd217      Cd  0.22952218  0.04383400  0.79037645     1.59600
O218        O  0.31873048  0.07536646  0.73995914    -0.80000
O219        O  0.24859142  0.49984238  0.75524901    -1.90500
Cd220      Cd  0.26821093  0.45381279  0.78822948     1.59900
O221        O  0.26359413  0.09997379  0.77488028    -0.80000
O222        O  0.23387267  0.39933897  0.76831628    -0.78600
C223        C  0.14308518  0.01467650  0.76628652     0.83900
C224        C  0.25024943  0.50343126  0.65052902     0.83600
O225        O  0.18127109  0.42811731  0.73399624    -0.77600
C226        C  0.35590014  0.48407803  0.76437423     0.84400
O227        O  0.15875250  0.52525263  0.73537632    -0.77700
C228        C  0.30103675  0.10442264  0.75861269     0.84500
C229        C  0.24847571  0.99648916  0.85985036     0.84800
O230        O  0.25014939  0.03137598  0.84313642    -0.80100
O231        O  0.09775894  0.22864644  0.65125337    -0.77600
C232        C  0.07595521  0.14279201  0.74473726     0.83400
O233        O  0.03591730  0.27696254  0.77512014    -0.78700
O234        O  0.13148084  0.21561682  0.82601387    -0.80200
O235        O  0.21721509  0.23342054  0.71467611    -0.80000
O236        O  0.15268869  0.27436604  0.65015546    -0.78600
Zn237      Zn  0.08129261  0.22690632  0.70622982     1.55700
O238        O  0.21344663  0.22090569  0.77412870    -0.80000
Cd239      Cd  0.16919344  0.27353744  0.70576250     1.59700
Cd240      Cd  0.10220768  0.29400416  0.77218125     1.59600
O241        O  0.19167953  0.32961520  0.72580077    -0.80000
O242        O  0.12437511  0.24940522  0.73870264    -1.90500
Cd243      Cd  0.14690335  0.20481542  0.77183696     1.59900
O244        O  0.13591331  0.35132304  0.76102732    -0.80000
O245        O  0.11296759  0.14792407  0.76077627    -0.78600
C246        C  0.01802355  0.25911736  0.74772432     0.83900
C247        C  0.12495380  0.25153076  0.63344059     0.83600
O248        O  0.05998499  0.17066079  0.72393638    -0.77600
C249        C  0.23222361  0.23852221  0.74676455     0.84400
O250        O  0.03360013  0.26466020  0.71563043    -0.77700
C251        C  0.17396698  0.35692314  0.74630648     0.84500
C252        C  0.12472972  0.24961754  0.84295632     0.84800
O253        O  0.11776483  0.28357214  0.82611249    -0.80100
O254        O  0.35234645  0.22136068  0.66940118    -0.77600
C255        C  0.32424935  0.14486586  0.75875551     0.83400
O256        O  0.28304556  0.28070548  0.78178129    -0.78700
O257        O  0.38305269  0.21526128  0.84361864    -0.80200
O258        O  0.45828790  0.22448730  0.72293558    -0.80000
O259        O  0.39696815  0.27585350  0.66724381    -0.78600
Zn260      Zn  0.33335799  0.22755581  0.72222232     1.55700
O261        O  0.46537622  0.21798257  0.78257083    -0.80000
Cd262      Cd  0.41639084  0.27102880  0.72100666     1.59700
Cd263      Cd  0.35065039  0.29438177  0.78810337     1.59600
O264        O  0.44324423  0.32519884  0.74032717    -0.80000
O265        O  0.37401231  0.24894654  0.75657689    -1.90500
Cd266      Cd  0.39756061  0.20396428  0.78815457     1.59900
O267        O  0.38711091  0.35005460  0.77367631    -0.80000
O268        O  0.36243154  0.14839700  0.77328080    -0.78600
C269        C  0.27015531  0.26639177  0.75086460     0.83900
C270        C  0.37418033  0.24825790  0.65121200     0.83600
O271        O  0.30657385  0.17474107  0.74146694    -0.77600
C272        C  0.47991716  0.23128530  0.75160352     0.84400
O273        O  0.29293216  0.27289410  0.72246720    -0.77700
C274        C  0.42518054  0.35437598  0.75842508     0.84500
C275        C  0.37215169  0.24836065  0.86081724     0.84800
O276        O  0.36232587  0.28182986  0.84375345    -0.80100
O277        O  0.02842000  0.47935297  0.59073602    -0.77600
C278        C  0.05116916  0.39616527  0.49774369     0.83400
O279        O  0.08609168  0.02914652  0.96904159    -0.78700
O280        O  0.49678049  0.46804733  0.91537392    -0.80200
O281        O  0.40657007  0.47148210  0.52473348    -0.80000
O282        O  0.46332835  0.00929052  0.59343389    -0.78600
Zn283      Zn  0.04214531  0.47904083  0.53657898     1.55700
O284        O  0.40998658  0.46884554  0.96480079    -0.80000
Cd285      Cd  0.45042901  0.01451521  0.53785567     1.59700
Cd286      Cd  0.01842220  0.04468141  0.97159426     1.59600
O287        O  0.42837614  0.07240786  0.52285530    -0.80000
O288        O  0.99764608  0.49802259  0.50407590    -1.90500
Cd289      Cd  0.47786233  0.45472867  0.96853322     1.59900
O290        O  0.48406399  0.09927846  0.98948103    -0.80000
O291        O  0.01468526  0.40021035  0.98054773    -0.78600
C292        C  0.10309365  0.01430917  0.49814200     0.83900
C293        C  0.99636896  0.49361587  0.60911675     0.83600
O294        O  0.06572788  0.42422869  0.51925988    -0.77600
C295        C  0.39101632  0.48165532  0.99399166     0.84400
O296        O  0.08520692  0.52191214  0.52876811    -0.77700
C297        C  0.44636556  0.10250307  0.00545062     0.84500
C298        C  0.49873317  0.00302185  0.89894566     0.84800
O299        O  0.00069220  0.03714017  0.91675516    -0.80100
O300        O  0.28106814  0.48759341  0.59235322    -0.77600
C301        C  0.29592937  0.39492857  0.50580653     0.83400
O302        O  0.33679068  0.02659560  0.96572426    -0.78700
O303        O  0.24556604  0.46218750  0.91789394    -0.80200
O304        O  0.15706003  0.47783782  0.52948870    -0.80000
O305        O  0.21641483  0.01853508  0.59418767    -0.78600
Zn306      Zn  0.29392111  0.48216373  0.53776479     1.55700
O307        O  0.15932375  0.47139519  0.96964444    -0.80000
Cd308      Cd  0.20288793  0.02025584  0.53891417     1.59700
Cd309      Cd  0.26952251  0.04310832  0.97019164     1.59600
O310        O  0.18058744  0.07709451  0.52141579    -0.80000
O311        O  0.24879504  0.49959730  0.50540667    -1.90500
Cd312      Cd  0.22652309  0.45434235  0.97250645     1.59900
O313        O  0.23399621  0.09858639  0.98288675    -0.80000
O314        O  0.25891065  0.39866780  0.98941459    -0.78600
C315        C  0.35484518  0.01207077  0.49447378     0.83900
C316        C  0.24930968  0.50329195  0.61029629     0.83600
O317        O  0.31342441  0.42480262  0.52354150    -0.77600
C318        C  0.14076377  0.48572522  0.99849423     0.84400
O319        O  0.33925021  0.52164101  0.52559744    -0.77700
C320        C  0.19719125  0.10427914  0.99984459     0.84500
C321        C  0.24818431  0.99646175  0.90029877     0.84800
O322        O  0.25061081  0.03120999  0.91695712    -0.80100
O323        O  0.06329126  0.33085664  0.97029262    -0.76800
C324        C  0.12516219  0.24962163  0.88305008     0.83400
O325        O  0.03410744  0.21989647  0.51434282    -0.78700
O326        O  0.18903306  0.16961953  0.97162899    -0.80200
O327        O  0.21603385  0.28511857  0.51435253    -0.80000
O328        O  0.11322017  0.35253347  0.51045353    -0.78600
Zn329      Zn  0.08426279  0.27575377  0.95344681     1.55700
O330        O  0.21677006  0.26436546  0.95644515    -0.80000
Cd331      Cd  0.14897191  0.29643101  0.51952553     1.59700
Cd332      Cd  0.10052975  0.20680758  0.51987265     1.59600
O333        O  0.13928691  0.28337561  0.57535189    -0.80000
O334        O  0.12457297  0.25133088  0.98754766    -1.90500
Cd335      Cd  0.16659206  0.22520286  0.95315337     1.59900
O336        O  0.10967825  0.21987617  0.57563670    -0.80000
O337        O  0.14642469  0.22156236  0.89966173    -0.78600
C338        C  0.01587717  0.24000814  0.98817501     0.83900
C339        C  0.07748300  0.35795361  0.99267857     0.83600
O340        O  0.10431242  0.27758506  0.90054979    -0.77600
C341        C  0.23243656  0.26292591  0.48850152     0.84400
O342        O  0.03255691  0.24112816  0.95619524    -0.77700
C343        C  0.12451073  0.25161608  0.59265252     0.84500
C344        C  0.17269835  0.14340305  0.49401702     0.84800
O345        O  0.13616462  0.15013999  0.51091348    -0.80100
O346        O  0.40320106  0.23136398  0.59297351    -0.77600
C347        C  0.42276554  0.14244912  0.50540175     0.83400
O348        O  0.45554389  0.28231937  0.97011024    -0.78700
O349        O  0.37188190  0.21334013  0.91883261    -0.80200
O350        O  0.27793960  0.22731130  0.52991869    -0.80000
O351        O  0.33997144  0.26509132  0.59567352    -0.78600
Zn352      Zn  0.41681611  0.22862401  0.53867518     1.55700
O353        O  0.28546955  0.21186448  0.97119844    -0.80000
Cd354      Cd  0.32471851  0.26810757  0.54072726     1.59700
Cd355      Cd  0.38822329  0.29397840  0.97317353     1.59600
O356        O  0.30208538  0.32570992  0.52573334    -0.80000
O357        O  0.37108147  0.24780020  0.50713271    -1.90500
Cd358      Cd  0.35303117  0.20147100  0.97343748     1.59900
O359        O  0.35516573  0.34996013  0.98855402    -0.80000
O360        O  0.38612996  0.14588023  0.98858466    -0.78600
C361        C  0.47671137  0.26465886  0.49595404     0.83900
C362        C  0.37231449  0.24805651  0.61121478     0.83600
O363        O  0.43894649  0.17230964  0.52388417    -0.77600
C364        C  0.26592241  0.23167319  0.99694624     0.84400
O365        O  0.46351317  0.26712229  0.52892503    -0.77700
C366        C  0.31882938  0.35461706  0.00618281     0.84500
C367        C  0.37112565  0.24802799  0.90161566     0.84800
O368        O  0.36971692  0.28254660  0.91894073    -0.80100
O369        O  0.40974941  0.02195239  0.23277092    -0.77600
C370        C  0.49839884  0.99346405  0.14932467     0.83400
O371        O  0.48534305  0.89909438  0.27499195    -0.78700
O372        O  0.09244103  0.47295509  0.23505728    -0.80200
O373        O  0.01563670  0.59970946  0.26623013    -0.80000
O374        O  0.41243865  0.52817988  0.29236632    -0.78600
Zn375      Zn  0.45298774  0.98037886  0.22273433     1.55700
O376        O  0.06869655  0.57203719  0.23078406    -0.80000
Cd377      Cd  0.48038530  0.54533549  0.28655384     1.59700
Cd378      Cd  0.01855100  0.95552870  0.28954300     1.59600
O379        O  0.50078970  0.53734882  0.34069006    -0.80000
O380        O  0.49920403  0.99850564  0.25383261    -1.90500
Cd381      Cd  0.04696782  0.51303172  0.21971230     1.59900
O382        O  0.99650443  0.96825870  0.34193349    -0.80000
O383        O  0.03354619  0.50514595  0.16466071    -0.78600
C384        C  0.44830855  0.89489020  0.25862517     0.83900
C385        C  0.39361912  0.51346817  0.26394089     0.83600
O386        O  0.46488001  0.98273502  0.16801284    -0.77600
C387        C  0.05205558  0.60269242  0.24793665     0.84400
O388        O  0.43155325  0.92414101  0.23976961    -0.77700
C389        C  0.99864608  0.50312973  0.35848902     0.84500
C390        C  0.10647551  0.98420102  0.26612986     0.84800
O391        O  0.08590523  0.97220229  0.29493350    -0.80100
O392        O  0.21655077  0.99133042  0.16830902    -0.77600
C393        C  0.19748604  0.89696748  0.25050930     0.83400
O394        O  0.16184947  0.52778735  0.29529702    -0.78700
O395        O  0.24706025  0.96218080  0.34225205    -0.80200
O396        O  0.34010936  0.47486335  0.23349911    -0.80000
O397        O  0.28459043  0.51551623  0.16683249    -0.78600
Zn398      Zn  0.20281703  0.98533668  0.22241834     1.55700
O399        O  0.33619081  0.97088818  0.29323275    -0.80000
Cd400      Cd  0.29636558  0.51818779  0.22257285     1.59700
Cd401      Cd  0.22952227  0.54383400  0.29037639     1.59600
O402        O  0.31873069  0.57536638  0.23995906    -0.80000
O403        O  0.24859144  0.99984252  0.25524884    -1.90500
Cd404      Cd  0.26821074  0.95381287  0.28822944     1.59900
O405        O  0.26359432  0.59997381  0.27488015    -0.80000
O406        O  0.23387248  0.89933905  0.26831624    -0.78600
C407        C  0.14308509  0.51467647  0.26628657     0.83900
C408        C  0.25024929  0.00343133  0.15052906     0.83600
O409        O  0.18127093  0.92811738  0.23399620    -0.77600
C410        C  0.35590000  0.98407792  0.26437423     0.84400
O411        O  0.15875242  0.02525275  0.23537619    -0.77700
C412        C  0.30103673  0.60442266  0.25861271     0.84500
C413        C  0.24847575  0.49648905  0.35985035     0.84800
O414        O  0.25014953  0.53137598  0.34313643    -0.80100
O415        O  0.09775852  0.72864645  0.15125346    -0.77600
C416        C  0.07595486  0.64279197  0.24473724     0.83400
O417        O  0.03591722  0.77696247  0.27512023    -0.78700
O418        O  0.13148084  0.71561680  0.32601380    -0.80200
O419        O  0.21721495  0.73342050  0.21467588    -0.80000
O420        O  0.15268824  0.77436608  0.15015545    -0.78600
Zn421      Zn  0.08129239  0.72690633  0.20622996     1.55700
O422        O  0.21344646  0.72090571  0.27412854    -0.80000
Cd423      Cd  0.16919324  0.77353737  0.20576246     1.59700
Cd424      Cd  0.10220753  0.79400422  0.27218120     1.59600
O425        O  0.19167929  0.82961512  0.22580083    -0.80000
O426        O  0.12437501  0.74940514  0.23870262    -1.90500
Cd427      Cd  0.14690322  0.70481531  0.27183692     1.59900
O428        O  0.13591306  0.85132318  0.26102728    -0.80000
O429        O  0.11296743  0.64792386  0.26077631    -0.78600
C430        C  0.01802331  0.75911722  0.24772408     0.83900
C431        C  0.12495349  0.75153101  0.13344064     0.83600
O432        O  0.05998471  0.67066075  0.22393659    -0.77600
C433        C  0.23222357  0.73852214  0.24676431     0.84400
O434        O  0.03359981  0.76466013  0.21563054    -0.77700
C435        C  0.17396682  0.85692321  0.24630644     0.84500
C436        C  0.12472997  0.74961731  0.34295617     0.84800
O437        O  0.11776477  0.78357215  0.32611240    -0.80100
O438        O  0.35234665  0.72136059  0.16940109    -0.77600
C439        C  0.32424973  0.64486566  0.25875552     0.83400
O440        O  0.28304572  0.78070530  0.28178111    -0.78700
O441        O  0.38305245  0.71526125  0.34361882    -0.80200
O442        O  0.45828792  0.72448704  0.22293586    -0.80000
O443        O  0.39696838  0.77585338  0.16724394    -0.78600
Zn444      Zn  0.33335809  0.72755565  0.22222227     1.55700
O445        O  0.46537603  0.71798239  0.28257111    -0.80000
Cd446      Cd  0.41639096  0.77102862  0.22100678     1.59700
Cd447      Cd  0.35065050  0.79438161  0.28810330     1.59600
O448        O  0.44324438  0.82519868  0.24032731    -0.80000
O449        O  0.37401246  0.74894631  0.25657698    -1.90500
Cd450      Cd  0.39756051  0.70396411  0.28815472     1.59900
O451        O  0.38711097  0.85005457  0.27367626    -0.80000
O452        O  0.36243157  0.64839687  0.27328085    -0.78600
C453        C  0.27015527  0.76639171  0.25086448     0.83900
C454        C  0.37418063  0.74825814  0.15121199     0.83600
O455        O  0.30657399  0.67474094  0.24146683    -0.77600
C456        C  0.47991690  0.73128515  0.25160295     0.84400
O457        O  0.29293233  0.77289387  0.22246710    -0.77700
C458        C  0.42518077  0.85437585  0.25842501     0.84500
C459        C  0.37215153  0.74836080  0.36081736     0.84800
O460        O  0.36232577  0.78182987  0.34375337    -0.80100
O461        O  0.02841986  0.97935296  0.09073617    -0.77600
C462        C  0.05116851  0.89616508  0.99774339     0.83400
O463        O  0.08609176  0.52914661  0.46904153    -0.78700
O464        O  0.49678064  0.96804732  0.41537382    -0.80200
O465        O  0.40656989  0.97148231  0.02473330    -0.80000
O466        O  0.46332834  0.50929056  0.09343408    -0.78600
Zn467      Zn  0.04214519  0.97904074  0.03657897     1.55700
O468        O  0.40998672  0.96884540  0.46480091    -0.80000
Cd469      Cd  0.45042909  0.51451527  0.03785576     1.59700
Cd470      Cd  0.01842228  0.54468132  0.47159425     1.59600
O471        O  0.42837638  0.57240797  0.02285531    -0.80000
O472        O  0.99764602  0.99802255  0.00407575    -1.90500
Cd473      Cd  0.47786248  0.95472871  0.46853317     1.59900
O474        O  0.48406384  0.59927839  0.48948098    -0.80000
O475        O  0.01468548  0.90021046  0.48054777    -0.78600
C476        C  0.10309374  0.51430913  0.99814233     0.83900
C477        C  0.99636932  0.99361558  0.10911674     0.83600
O478        O  0.06572776  0.92422865  0.01925994    -0.77600
C479        C  0.39101632  0.98165497  0.49399110     0.84400
O480        O  0.08520680  0.02191195  0.02876812    -0.77700
C481        C  0.44636526  0.60250301  0.50545063     0.84500
C482        C  0.49873296  0.50302170  0.39894563     0.84800
O483        O  0.00069230  0.53714010  0.41675519    -0.80100
O484        O  0.28106803  0.98759352  0.09235338    -0.77600
C485        C  0.29592910  0.89492857  0.00580630     0.83400
O486        O  0.33679084  0.52659551  0.46572419    -0.78700
O487        O  0.24556595  0.96218752  0.41789389    -0.80200
O488        O  0.15706028  0.97783776  0.02948874    -0.80000
O489        O  0.21641474  0.51853502  0.09418772    -0.78600
Zn490      Zn  0.29392103  0.98216384  0.03776480     1.55700
O491        O  0.15932362  0.97139531  0.46964438    -0.80000
Cd492      Cd  0.20288782  0.52025588  0.03891427     1.59700
Cd493      Cd  0.26952268  0.54310821  0.47019171     1.59600
O494        O  0.18058721  0.57709446  0.02141596    -0.80000
O495        O  0.24879488  0.99959742  0.00540658    -1.90500
Cd496      Cd  0.22652295  0.95434220  0.47250639     1.59900
O497        O  0.23399640  0.59858633  0.48288680    -0.80000
O498        O  0.25891058  0.89866761  0.48941461    -0.78600
C499        C  0.35484508  0.51207097  0.99447314     0.83900
C500        C  0.24930948  0.00329198  0.11029641     0.83600
O501        O  0.31342436  0.92480284  0.02354153    -0.77600
C502        C  0.14076371  0.98572529  0.49849466     0.84400
O503        O  0.33925010  0.02164111  0.02559751    -0.77700
C504        C  0.19719197  0.60427944  0.49984414     0.84500
C505        C  0.24818435  0.49646172  0.40029876     0.84800
O506        O  0.25061108  0.53120984  0.41695709    -0.80100
O507        O  0.06329152  0.83085674  0.47029256    -0.76800
C508        C  0.12516218  0.74962184  0.38305007     0.83400
O509        O  0.03410721  0.71989626  0.01434271    -0.78700
O510        O  0.18903338  0.66961985  0.47162884    -0.80200
O511        O  0.21603373  0.78511819  0.01435243    -0.80000
O512        O  0.11321979  0.85253340  0.01045348    -0.78600
Zn513      Zn  0.08426297  0.77575387  0.45344680     1.55700
O514        O  0.21677031  0.76436558  0.45644522    -0.80000
Cd515      Cd  0.14897171  0.79643088  0.01952553     1.59700
Cd516      Cd  0.10052948  0.70680745  0.01987284     1.59600
O517        O  0.13928666  0.78337559  0.07535184    -0.80000
O518        O  0.12457322  0.75133103  0.48754744    -1.90500
Cd519      Cd  0.16659223  0.72520298  0.45315329     1.59900
O520        O  0.10967775  0.71987621  0.07563698    -0.80000
O521        O  0.14642479  0.72156233  0.39966173    -0.78600
C522        C  0.01587725  0.74000822  0.48817532     0.83900
C523        C  0.07748331  0.85795373  0.49267857     0.83600
O524        O  0.10431262  0.77758504  0.40054970    -0.77600
C525        C  0.23243637  0.76292598  0.98850216     0.84400
O526        O  0.03255698  0.74112840  0.45619520    -0.77700
C527        C  0.12451024  0.75161596  0.09265259     0.84500
C528        C  0.17269796  0.64340296  0.99401723     0.84800
O529        O  0.13616445  0.65013985  0.01091366    -0.80100
O530        O  0.40320125  0.73136402  0.09297346    -0.77600
C531        C  0.42276591  0.64244927  0.00540178     0.83400
O532        O  0.45554366  0.78231922  0.47011051    -0.78700
O533        O  0.37188171  0.71334023  0.41883257    -0.80200
O534        O  0.27793982  0.72731143  0.02991883    -0.80000
O535        O  0.33997163  0.76509138  0.09567347    -0.78600
Zn536      Zn  0.41681626  0.72862408  0.03867510     1.55700
O537        O  0.28546940  0.71186409  0.47119835    -0.80000
Cd538      Cd  0.32471866  0.76810764  0.04072720     1.59700
Cd539      Cd  0.38822313  0.79397841  0.47317372     1.59600
O540        O  0.30208554  0.82570994  0.02573331    -0.80000
O541        O  0.37108160  0.74780029  0.00713268    -1.90500
Cd542      Cd  0.35303100  0.70147085  0.47343746     1.59900
O543        O  0.35516567  0.84996014  0.48855424    -0.80000
O544        O  0.38612975  0.64588008  0.48858464    -0.78600
C545        C  0.47671131  0.76465897  0.99595424     0.83900
C546        C  0.37231446  0.74805681  0.11121476     0.83600
O547        O  0.43894677  0.67230980  0.02388405    -0.77600
C548        C  0.26592231  0.73167318  0.49694676     0.84400
O549        O  0.46351316  0.76712259  0.02892484    -0.77700
C550        C  0.31882928  0.85461703  0.50618293     0.84500
C551        C  0.37112548  0.74802807  0.40161579     0.84800
O552        O  0.36971677  0.78254672  0.41894102    -0.80100
O553        O  0.40974948  0.02195257  0.73277086    -0.77600
C554        C  0.49839877  0.99346415  0.64932457     0.83400
O555        O  0.48534306  0.89909447  0.77499192    -0.78700
O556        O  0.09244097  0.47295511  0.73505729    -0.80200
O557        O  0.01563689  0.59970961  0.76623006    -0.80000
O558        O  0.41243885  0.52818013  0.79236617    -0.78600
Zn559      Zn  0.45298779  0.98037897  0.72273425     1.55700
O560        O  0.06869679  0.57203713  0.73078415    -0.80000
Cd561      Cd  0.48038548  0.54533562  0.78655367     1.59700
Cd562      Cd  0.01855101  0.95552883  0.78954302     1.59600
O563        O  0.50078986  0.53734895  0.84068986    -0.80000
O564        O  0.49920407  0.99850569  0.75383263    -1.90500
Cd565      Cd  0.04696784  0.51303178  0.71971233     1.59900
O566        O  0.99650442  0.96825892  0.84193353    -0.80000
O567        O  0.03354622  0.50514606  0.66466074    -0.78600
C568        C  0.44830858  0.89489029  0.75862532     0.83900
C569        C  0.39361918  0.51346855  0.76394085     0.83600
O570        O  0.46487999  0.98273508  0.66801278    -0.77600
C571        C  0.05205552  0.60269263  0.74793670     0.84400
O572        O  0.43155327  0.92414104  0.73976956    -0.77700
C573        C  0.99864606  0.50313007  0.85848895     0.84500
C574        C  0.10647552  0.98420116  0.76613052     0.84800
O575        O  0.08590530  0.97220246  0.79493344    -0.80100
O576        O  0.21655102  0.99133036  0.66830891    -0.77600
C577        C  0.19748638  0.89696732  0.75050939     0.83400
O578        O  0.16184932  0.52778760  0.79529711    -0.78700
O579        O  0.24706046  0.96218090  0.84225212    -0.80200
O580        O  0.34010935  0.47486367  0.73349911    -0.80000
O581        O  0.28459028  0.51551638  0.66683248    -0.78600
Zn582      Zn  0.20281727  0.98533658  0.72241838     1.55700
O583        O  0.33619113  0.97088826  0.79323270    -0.80000
Cd584      Cd  0.29636538  0.51818789  0.72257291     1.59700
Cd585      Cd  0.22952205  0.54383415  0.79037647     1.59600
O586        O  0.31873039  0.57536654  0.73995909    -0.80000
O587        O  0.24859153  0.99984218  0.75524899    -1.90500
Cd588      Cd  0.26821105  0.95381272  0.78822951     1.59900
O589        O  0.26359408  0.59997391  0.77488033    -0.80000
O590        O  0.23387283  0.89933882  0.76831624    -0.78600
C591        C  0.14308507  0.51467656  0.76628661     0.83900
C592        C  0.25024923  0.00343107  0.65052902     0.83600
O593        O  0.18127125  0.92811727  0.73399624    -0.77600
C594        C  0.35590015  0.98407801  0.76437423     0.84400
O595        O  0.15875267  0.02525254  0.73537636    -0.77700
C596        C  0.30103675  0.60442273  0.75861269     0.84500
C597        C  0.24847565  0.49648919  0.85985036     0.84800
O598        O  0.25014930  0.53137604  0.84313643    -0.80100
O599        O  0.09775887  0.72864650  0.65125335    -0.77600
C600        C  0.07595532  0.64279193  0.74473727     0.83400
O601        O  0.03591751  0.77696251  0.77512021    -0.78700
O602        O  0.13148077  0.71561675  0.82601391    -0.80200
O603        O  0.21721492  0.73342056  0.71467608    -0.80000
O604        O  0.15268868  0.77436608  0.65015544    -0.78600
Zn605      Zn  0.08129265  0.72690626  0.70622985     1.55700
O606        O  0.21344653  0.72090570  0.77412869    -0.80000
Cd607      Cd  0.16919338  0.77353744  0.70576249     1.59700
Cd608      Cd  0.10220780  0.79400412  0.77218125     1.59600
O609        O  0.19167965  0.82961514  0.72580076    -0.80000
O610        O  0.12437503  0.74940517  0.73870266    -1.90500
Cd611      Cd  0.14690329  0.70481536  0.77183699     1.59900
O612        O  0.13591351  0.85132300  0.76102736    -0.80000
O613        O  0.11296749  0.64792384  0.76077639    -0.78600
C614        C  0.01802352  0.75911726  0.74772370     0.83900
C615        C  0.12495345  0.75153051  0.63344058     0.83600
O616        O  0.05998507  0.67066080  0.72393641    -0.77600
C617        C  0.23222360  0.73852204  0.74676453     0.84400
O618        O  0.03360021  0.76466002  0.71563051    -0.77700
C619        C  0.17396715  0.85692308  0.74630645     0.84500
C620        C  0.12472994  0.74961752  0.84295633     0.84800
O621        O  0.11776488  0.78357210  0.82611246    -0.80100
O622        O  0.35234642  0.72136065  0.66940118    -0.77600
C623        C  0.32424927  0.64486590  0.75875551     0.83400
O624        O  0.28304545  0.78070545  0.78178134    -0.78700
O625        O  0.38305257  0.71526142  0.84361872    -0.80200
O626        O  0.45828807  0.72448733  0.72293560    -0.80000
O627        O  0.39696797  0.77585355  0.66724384    -0.78600
Zn628      Zn  0.33335790  0.72755577  0.72222231     1.55700
O629        O  0.46537610  0.71798251  0.78257086    -0.80000
Cd630      Cd  0.41639073  0.77102878  0.72100668     1.59700
Cd631      Cd  0.35065032  0.79438178  0.78810334     1.59600
O632        O  0.44324421  0.82519889  0.74032716    -0.80000
O633        O  0.37401220  0.74894646  0.75657690    -1.90500
Cd634      Cd  0.39756054  0.70396424  0.78815457     1.59900
O635        O  0.38711089  0.85005471  0.77367634    -0.80000
O636        O  0.36243148  0.64839706  0.77328082    -0.78600
C637        C  0.27015515  0.76639176  0.75086457     0.83900
C638        C  0.37418029  0.74825809  0.65121201     0.83600
O639        O  0.30657379  0.67474108  0.74146695    -0.77600
C640        C  0.47991692  0.73128537  0.75160256     0.84400
O641        O  0.29293210  0.77289408  0.72246727    -0.77700
C642        C  0.42518057  0.85437603  0.75842509     0.84500
C643        C  0.37215166  0.74836047  0.86081725     0.84800
O644        O  0.36232567  0.78183003  0.84375338    -0.80100
O645        O  0.02841995  0.97935287  0.59073608    -0.77600
C646        C  0.05116860  0.89616507  0.49774341     0.83400
O647        O  0.08609169  0.52914658  0.96904149    -0.78700
O648        O  0.49678048  0.96804733  0.91537381    -0.80200
O649        O  0.40657008  0.97148203  0.52473347    -0.80000
O650        O  0.46332822  0.50929054  0.59343397    -0.78600
Zn651      Zn  0.04214524  0.97904076  0.53657903     1.55700
O652        O  0.40998648  0.96884550  0.96480073    -0.80000
Cd653      Cd  0.45042887  0.51451530  0.53785569     1.59700
Cd654      Cd  0.01842229  0.54468139  0.97159431     1.59600
O655        O  0.42837597  0.57240800  0.52285528    -0.80000
O656        O  0.99764621  0.99802270  0.50407593    -1.90500
Cd657      Cd  0.47786222  0.95472859  0.96853307     1.59900
O658        O  0.48406419  0.59927849  0.98948103    -0.80000
O659        O  0.01468531  0.90021033  0.98054786    -0.78600
C660        C  0.10309375  0.51430924  0.49814147     0.83900
C661        C  0.99636841  0.99361584  0.60911681     0.83600
O662        O  0.06572784  0.92422870  0.51925995    -0.77600
C663        C  0.39101623  0.98165523  0.99399162     0.84400
O664        O  0.08520687  0.02191199  0.52876818    -0.77700
C665        C  0.44636582  0.60250312  0.00545065     0.84500
C666        C  0.49873303  0.50302193  0.89894573     0.84800
O667        O  0.00069225  0.53714022  0.91675524    -0.80100
O668        O  0.28106812  0.98759348  0.59235324    -0.77600
C669        C  0.29592922  0.89492866  0.50580650     0.83400
O670        O  0.33679085  0.52659567  0.96572424    -0.78700
O671        O  0.24556605  0.96218749  0.91789397    -0.80200
O672        O  0.15706032  0.97783786  0.52948881    -0.80000
O673        O  0.21641479  0.51853497  0.59418768    -0.78600
Zn674      Zn  0.29392110  0.98216386  0.53776476     1.55700
O675        O  0.15932361  0.97139526  0.96964428    -0.80000
Cd676      Cd  0.20288784  0.52025574  0.53891419     1.59700
Cd677      Cd  0.26952268  0.54310832  0.97019164     1.59600
O678        O  0.18058743  0.57709437  0.52141583    -0.80000
O679        O  0.24879491  0.99959741  0.50540658    -1.90500
Cd680      Cd  0.22652298  0.95434229  0.97250643     1.59900
O681        O  0.23399614  0.59858625  0.98288677    -0.80000
O682        O  0.25891058  0.89866773  0.98941467    -0.78600
C683        C  0.35484511  0.51207076  0.49447381     0.83900
C684        C  0.24931001  0.00329183  0.61029629     0.83600
O685        O  0.31342430  0.92480284  0.52354146    -0.77600
C686        C  0.14076369  0.98572526  0.99849478     0.84400
O687        O  0.33925031  0.02164108  0.52559749    -0.77700
C688        C  0.19719192  0.60427949  0.99984419     0.84500
C689        C  0.24818434  0.49646178  0.90029875     0.84800
O690        O  0.25061108  0.53120998  0.91695710    -0.80100
O691        O  0.06329132  0.83085667  0.97029265    -0.76800
C692        C  0.12516239  0.74962174  0.88305009     0.83400
O693        O  0.03410731  0.71989637  0.51434275    -0.78700
O694        O  0.18903310  0.66961980  0.97162885    -0.80200
O695        O  0.21603375  0.78511846  0.51435251    -0.80000
O696        O  0.11321994  0.85253341  0.51045344    -0.78600
Zn697      Zn  0.08426288  0.77575387  0.95344683     1.55700
O698        O  0.21676998  0.76436535  0.95644513    -0.80000
Cd699      Cd  0.14897180  0.79643094  0.51952551     1.59700
Cd700      Cd  0.10052963  0.70680755  0.51987268     1.59600
O701        O  0.13928676  0.78337554  0.57535190    -0.80000
O702        O  0.12457312  0.75133095  0.98754769    -1.90500
Cd703      Cd  0.16659199  0.72520287  0.95315336     1.59900
O704        O  0.10967805  0.71987613  0.57563670    -0.80000
O705        O  0.14642460  0.72156227  0.89966177    -0.78600
C706        C  0.01587725  0.74000814  0.98817511     0.83900
C707        C  0.07748316  0.85795371  0.99267852     0.83600
O708        O  0.10431257  0.77758510  0.90054976    -0.77600
C709        C  0.23243650  0.76292587  0.48850156     0.84400
O710        O  0.03255708  0.74112844  0.95619522    -0.77700
C711        C  0.12451075  0.75161641  0.59265252     0.84500
C712        C  0.17269825  0.64340302  0.49401719     0.84800
O713        O  0.13616460  0.65014008  0.51091356    -0.80100
O714        O  0.40320088  0.73136388  0.59297352    -0.77600
C715        C  0.42276571  0.64244925  0.50540181     0.83400
O716        O  0.45554384  0.78231948  0.97011027    -0.78700
O717        O  0.37188190  0.71334021  0.91883261    -0.80200
O718        O  0.27793952  0.72731122  0.52991875    -0.80000
O719        O  0.33997139  0.76509143  0.59567350    -0.78600
Zn720      Zn  0.41681598  0.72862394  0.53867519     1.55700
O721        O  0.28546955  0.71186446  0.97119844    -0.80000
Cd722      Cd  0.32471839  0.76810754  0.54072726     1.59700
Cd723      Cd  0.38822322  0.79397856  0.97317354     1.59600
O724        O  0.30208535  0.82570984  0.52573325    -0.80000
O725        O  0.37108118  0.74780014  0.50713271    -1.90500
Cd726      Cd  0.35303123  0.70147102  0.97343749     1.59900
O727        O  0.35516567  0.84996027  0.98855408    -0.80000
O728        O  0.38613008  0.64588017  0.98858468    -0.78600
C729        C  0.47671129  0.76465880  0.49595436     0.83900
C730        C  0.37231417  0.74805667  0.61121478     0.83600
O731        O  0.43894640  0.67230961  0.52388412    -0.77600
C732        C  0.26592248  0.73167319  0.99694615     0.84400
O733        O  0.46351309  0.76712220  0.52892508    -0.77700
C734        C  0.31882955  0.85461731  0.00618272     0.84500
C735        C  0.37112554  0.74802842  0.90161565     0.84800
O736        O  0.36971680  0.78254669  0.91894072    -0.80100
O737        O  0.90974926  0.52195244  0.23277098    -0.77600
C738        C  0.99839869  0.49346401  0.14932468     0.83400
O739        O  0.98534320  0.39909448  0.27499190    -0.78700
O740        O  0.59244093  0.97295517  0.23505718    -0.80200
O741        O  0.51563685  0.09970949  0.26623009    -0.80000
O742        O  0.91243868  0.02817986  0.29236627    -0.78600
Zn743      Zn  0.95298768  0.48037885  0.22273434     1.55700
O744        O  0.56869662  0.07203704  0.23078412    -0.80000
Cd745      Cd  0.98038538  0.04533549  0.28655383     1.59700
Cd746      Cd  0.51855095  0.45552873  0.28954301     1.59600
O747        O  0.00078975  0.03734877  0.34069000    -0.80000
O748        O  0.99920411  0.49850561  0.25383256    -1.90500
Cd749      Cd  0.54696777  0.01303172  0.21971232     1.59900
O750        O  0.49650446  0.46825872  0.34193355    -0.80000
O751        O  0.53354622  0.00514605  0.16466067    -0.78600
C752        C  0.94830836  0.39489037  0.25862510     0.83900
C753        C  0.89361918  0.01346816  0.26394091     0.83600
O754        O  0.96487991  0.48273503  0.16801282    -0.77600
C755        C  0.55205544  0.10269255  0.24793679     0.84400
O756        O  0.93155331  0.42414094  0.23976960    -0.77700
C757        C  0.49864626  0.00312976  0.35848900     0.84500
C758        C  0.60647555  0.48420099  0.26612984     0.84800
O759        O  0.58590510  0.47220230  0.29493349    -0.80100
O760        O  0.71655097  0.49133035  0.16830897    -0.77600
C761        C  0.69748612  0.39696743  0.25050923     0.83400
O762        O  0.66184942  0.02778747  0.29529711    -0.78700
O763        O  0.74706032  0.46218089  0.34225208    -0.80200
O764        O  0.84010941  0.97486328  0.23349918    -0.80000
O765        O  0.78459033  0.01551614  0.16683248    -0.78600
Zn766      Zn  0.70281711  0.48533659  0.22241836     1.55700
O767        O  0.83619102  0.47088803  0.29323271    -0.80000
Cd768      Cd  0.79636552  0.01818767  0.22257286     1.59700
Cd769      Cd  0.72952218  0.04383410  0.29037640     1.59600
O770        O  0.81873051  0.07536634  0.23995908    -0.80000
O771        O  0.74859144  0.49984227  0.25524893    -1.90500
Cd772      Cd  0.76821087  0.45381269  0.28822946     1.59900
O773        O  0.76359418  0.09997384  0.27488018    -0.80000
O774        O  0.73387258  0.39933894  0.26831620    -0.78600
C775        C  0.64308515  0.01467648  0.26628648     0.83900
C776        C  0.75024906  0.50343116  0.15052906     0.83600
O777        O  0.68127094  0.42811728  0.23399627    -0.77600
C778        C  0.85589999  0.48407784  0.26437429     0.84400
O779        O  0.65875260  0.52525255  0.23537616    -0.77700
C780        C  0.80103679  0.10442257  0.25861259     0.84500
C781        C  0.74847575  0.99648992  0.35985036     0.84800
O782        O  0.75014941  0.03137586  0.34313650    -0.80100
O783        O  0.59775878  0.22864637  0.15125346    -0.77600
C784        C  0.57595526  0.14279185  0.24473737     0.83400
O785        O  0.53591742  0.27696265  0.27512028    -0.78700
O786        O  0.63148078  0.21561658  0.32601392    -0.80200
O787        O  0.71721491  0.23342058  0.21467587    -0.80000
O788        O  0.65268839  0.27436612  0.15015543    -0.78600
Zn789      Zn  0.58129251  0.22690624  0.20622997     1.55700
O790        O  0.71344647  0.22090567  0.27412852    -0.80000
Cd791      Cd  0.66919319  0.27353742  0.20576247     1.59700
Cd792      Cd  0.60220763  0.29400424  0.27218122     1.59600
O793        O  0.69167933  0.32961510  0.22580078    -0.80000
O794        O  0.62437495  0.24940521  0.23870272    -1.90500
Cd795      Cd  0.64690320  0.20481531  0.27183709     1.59900
O796        O  0.63591320  0.35132326  0.26102731    -0.80000
O797        O  0.61296742  0.14792382  0.26077641    -0.78600
C798        C  0.51802340  0.25911716  0.24772335     0.83900
C799        C  0.62495342  0.25153075  0.13344064     0.83600
O800        O  0.55998485  0.17066077  0.22393654    -0.77600
C801        C  0.73222349  0.23852208  0.24676441     0.84400
O802        O  0.53359996  0.26465994  0.21563063    -0.77700
C803        C  0.67396704  0.35692313  0.24630641     0.84500
C804        C  0.62472965  0.24961823  0.34295624     0.84800
O805        O  0.61776489  0.28357194  0.32611246    -0.80100
O806        O  0.85234654  0.22136056  0.16940105    -0.77600
C807        C  0.82424939  0.14486574  0.25875542     0.83400
O808        O  0.78304558  0.28070536  0.28178112    -0.78700
O809        O  0.88305240  0.21526128  0.34361892    -0.80200
O810        O  0.95828795  0.22448708  0.22293587    -0.80000
O811        O  0.89696826  0.27585336  0.16724397    -0.78600
Zn812      Zn  0.83335802  0.22755568  0.22222225     1.55700
O813        O  0.96537601  0.21798239  0.28257111    -0.80000
Cd814      Cd  0.91639088  0.27102864  0.22100680     1.59700
Cd815      Cd  0.85065039  0.29438167  0.28810330     1.59600
O816        O  0.94324437  0.32519879  0.24032731    -0.80000
O817        O  0.87401220  0.24894636  0.25657700    -1.90500
Cd818      Cd  0.89756042  0.20396415  0.28815472     1.59900
O819        O  0.88711088  0.35005446  0.27367629    -0.80000
O820        O  0.86243150  0.14839688  0.27328083    -0.78600
C821        C  0.77015533  0.26639168  0.25086439     0.83900
C822        C  0.87418050  0.24825793  0.15121199     0.83600
O823        O  0.80657388  0.17474096  0.24146686    -0.77600
C824        C  0.97991687  0.23128527  0.25160287     0.84400
O825        O  0.79293222  0.27289398  0.22246711    -0.77700
C826        C  0.92518094  0.35437569  0.25842494     0.84500
C827        C  0.87215141  0.24836067  0.36081734     0.84800
O828        O  0.86232569  0.28182995  0.34375333    -0.80100
O829        O  0.52841988  0.47935292  0.09073616    -0.77600
C830        C  0.55116869  0.39616511  0.99774356     0.83400
O831        O  0.58609163  0.02914646  0.46904157    -0.78700
O832        O  0.99678053  0.46804723  0.41537382    -0.80200
O833        O  0.90656995  0.47148213  0.02473330    -0.80000
O834        O  0.96332830  0.00929061  0.09343406    -0.78600
Zn835      Zn  0.54214534  0.47904079  0.03657901     1.55700
O836        O  0.90998645  0.46884526  0.46480093    -0.80000
Cd837      Cd  0.95042902  0.01451535  0.03785575     1.59700
Cd838      Cd  0.51842222  0.04468137  0.47159424     1.59600
O839        O  0.92837627  0.07240802  0.02285533    -0.80000
O840        O  0.49764627  0.49802273  0.00407586    -1.90500
Cd841      Cd  0.97786236  0.45472856  0.46853318     1.59900
O842        O  0.98406389  0.09927844  0.48948105    -0.80000
O843        O  0.51468545  0.40021033  0.48054785    -0.78600
C844        C  0.60309371  0.01430907  0.99814235     0.83900
C845        C  0.49636910  0.49361557  0.10911676     0.83600
O846        O  0.56572778  0.42422867  0.01925994    -0.77600
C847        C  0.89101632  0.48165504  0.49399109     0.84400
O848        O  0.58520689  0.52191202  0.02876814    -0.77700
C849        C  0.94636555  0.10250302  0.50545059     0.84500
C850        C  0.99873313  0.00302168  0.39894561     0.84800
O851        O  0.50069232  0.03714016  0.41675515    -0.80100
O852        O  0.78106807  0.48759348  0.09235340    -0.77600
C853        C  0.79592936  0.39492862  0.00580643     0.83400
O854        O  0.83679084  0.02659557  0.46572418    -0.78700
O855        O  0.74556600  0.46218735  0.41789391    -0.80200
O856        O  0.65706023  0.47783764  0.02948874    -0.80000
O857        O  0.71641468  0.01853493  0.09418770    -0.78600
Zn858      Zn  0.79392103  0.48216384  0.03776480     1.55700
O859        O  0.65932374  0.47139538  0.46964435    -0.80000
Cd860      Cd  0.70288793  0.02025572  0.03891425     1.59700
Cd861      Cd  0.76952281  0.04310826  0.47019167     1.59600
O862        O  0.68058740  0.07709428  0.02141593    -0.80000
O863        O  0.74879503  0.49959764  0.00540658    -1.90500
Cd864      Cd  0.72652307  0.45434223  0.47250639     1.59900
O865        O  0.73399627  0.09858633  0.48288688    -0.80000
O866        O  0.75891066  0.39866758  0.48941456    -0.78600
C867        C  0.85484506  0.01207090  0.99447310     0.83900
C868        C  0.74930989  0.50329176  0.11029640     0.83600
O869        O  0.81342432  0.42480271  0.02354153    -0.77600
C870        C  0.64076366  0.48572534  0.49849471     0.84400
O871        O  0.83925003  0.52164105  0.02559748    -0.77700
C872        C  0.69719261  0.10427971  0.49984372     0.84500
C873        C  0.74818436  0.99646091  0.40029879     0.84800
O874        O  0.75061125  0.03121000  0.41695715    -0.80100
O875        O  0.56329152  0.33085671  0.47029258    -0.76800
C876        C  0.62516280  0.24962113  0.38305010     0.83400
O877        O  0.53410723  0.21989619  0.01434283    -0.78700
O878        O  0.68903343  0.16962001  0.47162884    -0.80200
O879        O  0.71603365  0.28511821  0.01435244    -0.80000
O880        O  0.61321979  0.35253336  0.01045358    -0.78600
Zn881      Zn  0.58426306  0.27575391  0.45344679     1.55700
O882        O  0.71677030  0.26436560  0.45644518    -0.80000
Cd883      Cd  0.64897166  0.29643088  0.01952552     1.59700
Cd884      Cd  0.60052948  0.20680747  0.01987284     1.59600
O885        O  0.63928663  0.28337553  0.07535182    -0.80000
O886        O  0.62457315  0.25133109  0.48754745    -1.90500
Cd887      Cd  0.66659220  0.22520304  0.45315331     1.59900
O888        O  0.60967790  0.21987611  0.07563696    -0.80000
O889        O  0.64642469  0.22156247  0.39966167    -0.78600
C890        C  0.51587743  0.24000827  0.48817528     0.83900
C891        C  0.57748346  0.35795390  0.49267866     0.83600
O892        O  0.60431262  0.27758525  0.40054981    -0.77600
C893        C  0.73243649  0.26292602  0.98850210     0.84400
O894        O  0.53255719  0.24112847  0.45619522    -0.77700
C895        C  0.62451044  0.25161620  0.09265257     0.84500
C896        C  0.67269810  0.14340299  0.99401709     0.84800
O897        O  0.63616428  0.15013992  0.01091365    -0.80100
O898        O  0.90320124  0.23136400  0.09297346    -0.77600
C899        C  0.92276576  0.14244933  0.00540182     0.83400
O900        O  0.95554371  0.28231925  0.47011053    -0.78700
O901        O  0.87188174  0.21334020  0.41883251    -0.80200
O902        O  0.77793968  0.22731122  0.02991885    -0.80000
O903        O  0.83997156  0.26509133  0.09567346    -0.78600
Zn904      Zn  0.91681638  0.22862416  0.03867511     1.55700
O905        O  0.78546947  0.21186424  0.47119840    -0.80000
Cd906      Cd  0.82471861  0.26810755  0.04072719     1.59700
Cd907      Cd  0.88822313  0.29397845  0.47317368     1.59600
O908        O  0.80208562  0.32570990  0.02573327    -0.80000
O909        O  0.87108161  0.24780030  0.00713268    -1.90500
Cd910      Cd  0.85303110  0.20147093  0.47343745     1.59900
O911        O  0.85516560  0.34996024  0.48855415    -0.80000
O912        O  0.88612990  0.14588013  0.48858460    -0.78600
C913        C  0.97671145  0.26465904  0.99595418     0.83900
C914        C  0.87231452  0.24805668  0.11121475     0.83600
O915        O  0.93894680  0.17230983  0.02388401    -0.77600
C916        C  0.76592243  0.23167331  0.49694676     0.84400
O917        O  0.96351332  0.26712266  0.02892491    -0.77700
C918        C  0.81882932  0.35461713  0.50618290     0.84500
C919        C  0.87112551  0.24802823  0.40161573     0.84800
O920        O  0.86971687  0.28254669  0.41894092    -0.80100
O921        O  0.90974941  0.52195261  0.73277087    -0.77600
C922        C  0.99839904  0.49346423  0.64932455     0.83400
O923        O  0.98534296  0.39909461  0.77499196    -0.78700
O924        O  0.59244093  0.97295523  0.73505735    -0.80200
O925        O  0.51563684  0.09970958  0.76623001    -0.80000
O926        O  0.91243877  0.02818003  0.79236613    -0.78600
Zn927      Zn  0.95298769  0.48037900  0.72273424     1.55700
O928        O  0.56869672  0.07203712  0.73078412    -0.80000
Cd929      Cd  0.98038541  0.04533563  0.78655366     1.59700
Cd930      Cd  0.51855094  0.45552885  0.78954302     1.59600
O931        O  0.00078979  0.03734897  0.84068981    -0.80000
O932        O  0.99920402  0.49850566  0.75383256    -1.90500
Cd933      Cd  0.54696780  0.01303183  0.71971234     1.59900
O934        O  0.49650444  0.46825890  0.84193359    -0.80000
O935        O  0.53354617  0.00514608  0.66466075    -0.78600
C936        C  0.94830851  0.39489042  0.75862531     0.83900
C937        C  0.89361921  0.01346837  0.76394089     0.83600
O938        O  0.96487996  0.48273518  0.66801278    -0.77600
C939        C  0.55205568  0.10269257  0.74793666     0.84400
O940        O  0.93155325  0.42414115  0.73976955    -0.77700
C941        C  0.49864622  0.00312981  0.85848887     0.84500
C942        C  0.60647549  0.48420111  0.76613048     0.84800
O943        O  0.58590511  0.47220242  0.79493345    -0.80100
O944        O  0.71655097  0.49133035  0.66830892    -0.77600
C945        C  0.69748630  0.39696737  0.75050943     0.83400
O946        O  0.66184938  0.02778744  0.79529708    -0.78700
O947        O  0.74706038  0.46218095  0.84225209    -0.80200
O948        O  0.84010948  0.97486339  0.73349919    -0.80000
O949        O  0.78459033  0.01551621  0.66683247    -0.78600
Zn950      Zn  0.70281722  0.48533663  0.72241839     1.55700
O951        O  0.83619109  0.47088815  0.79323267    -0.80000
Cd952      Cd  0.79636555  0.01818775  0.72257291     1.59700
Cd953      Cd  0.72952221  0.04383402  0.79037644     1.59600
O954        O  0.81873054  0.07536644  0.73995913    -0.80000
O955        O  0.74859149  0.49984237  0.75524900    -1.90500
Cd956      Cd  0.76821096  0.45381279  0.78822949     1.59900
O957        O  0.76359419  0.09997377  0.77488028    -0.80000
O958        O  0.73387275  0.39933896  0.76831626    -0.78600
C959        C  0.64308503  0.01467657  0.76628662     0.83900
C960        C  0.75024927  0.50343123  0.65052902     0.83600
O961        O  0.68127116  0.42811732  0.73399625    -0.77600
C962        C  0.85590012  0.48407800  0.76437418     0.84400
O963        O  0.65875257  0.52525263  0.73537632    -0.77700
C964        C  0.80103679  0.10442262  0.75861267     0.84500
C965        C  0.74847570  0.99648921  0.85985037     0.84800
O966        O  0.75014948  0.03137601  0.84313643    -0.80100
O967        O  0.59775881  0.22864644  0.65125341    -0.77600
C968        C  0.57595528  0.14279200  0.74473721     0.83400
O969        O  0.53591744  0.27696264  0.77512023    -0.78700
O970        O  0.63148073  0.21561683  0.82601390    -0.80200
O971        O  0.71721504  0.23342046  0.71467601    -0.80000
O972        O  0.65268862  0.27436595  0.65015543    -0.78600
Zn973      Zn  0.58129259  0.22690632  0.70622984     1.55700
O974        O  0.71344645  0.22090562  0.77412864    -0.80000
Cd975      Cd  0.66919346  0.27353744  0.70576247     1.59700
Cd976      Cd  0.60220772  0.29400417  0.77218125     1.59600
O977        O  0.69167960  0.32961520  0.72580076    -0.80000
O978        O  0.62437507  0.24940527  0.73870261    -1.90500
Cd979      Cd  0.64690323  0.20481544  0.77183698     1.59900
O980        O  0.63591339  0.35132304  0.76102732    -0.80000
O981        O  0.61296757  0.14792404  0.76077637    -0.78600
C982        C  0.51802345  0.25911730  0.74772354     0.83900
C983        C  0.62495406  0.25153105  0.63344060     0.83600
O984        O  0.55998502  0.17066081  0.72393646    -0.77600
C985        C  0.73222352  0.23852215  0.74676439     0.84400
O986        O  0.53360007  0.26466010  0.71563056    -0.77700
C987        C  0.67396706  0.35692313  0.74630648     0.84500
C988        C  0.62472989  0.24961738  0.84295634     0.84800
O989        O  0.61776481  0.28357217  0.82611249    -0.80100
O990        O  0.85234647  0.22136069  0.66940116    -0.77600
C991        C  0.82424937  0.14486583  0.75875550     0.83400
O992        O  0.78304562  0.28070546  0.78178116    -0.78700
O993        O  0.88305273  0.21526127  0.84361864    -0.80200
O994        O  0.95828809  0.22448733  0.72293557    -0.80000
O995        O  0.89696798  0.27585361  0.66724387    -0.78600
Zn996      Zn  0.83335799  0.22755584  0.72222231     1.55700
O997        O  0.96537609  0.21798264  0.78257085    -0.80000
Cd998      Cd  0.91639083  0.27102880  0.72100664     1.59700
Cd999      Cd  0.85065041  0.29438180  0.78810335     1.59600
O1000       O  0.94324421  0.32519890  0.74032719    -0.80000
O1001       O  0.87401244  0.24894657  0.75657686    -1.90500
Cd1002     Cd  0.89756054  0.20396430  0.78815454     1.59900
O1003       O  0.88711087  0.35005470  0.77367633    -0.80000
O1004       O  0.86243153  0.14839697  0.77328082    -0.78600
C1005       C  0.77015523  0.26639178  0.75086461     0.83900
C1006       C  0.87418029  0.24825813  0.65121201     0.83600
O1007       O  0.80657389  0.17474105  0.74146693    -0.77600
C1008       C  0.97991697  0.23128541  0.75160263     0.84400
O1009       O  0.79293225  0.27289406  0.72246715    -0.77700
C1010       C  0.92518055  0.35437603  0.75842507     0.84500
C1011       C  0.87215154  0.24836105  0.86081727     0.84800
O1012       O  0.86232580  0.28182985  0.84375350    -0.80100
O1013       O  0.52841984  0.47935298  0.59073612    -0.77600
C1014       C  0.55116838  0.39616504  0.49774327     0.83400
O1015       O  0.58609166  0.02914641  0.96904148    -0.78700
O1016       O  0.99678059  0.46804739  0.91537378    -0.80200
O1017       O  0.90657015  0.47148210  0.52473349    -0.80000
O1018       O  0.96332836  0.00929046  0.59343400    -0.78600
Zn1019     Zn  0.54214514  0.47904080  0.53657902     1.55700
O1020       O  0.90998657  0.46884538  0.96480074    -0.80000
Cd1021     Cd  0.95042901  0.01451517  0.53785567     1.59700
Cd1022     Cd  0.51842223  0.04468125  0.97159429     1.59600
O1023       O  0.92837617  0.07240780  0.52285528    -0.80000
O1024       O  0.49764589  0.49802260  0.50407590    -1.90500
Cd1025     Cd  0.97786233  0.45472867  0.96853308     1.59900
O1026       O  0.98406405  0.09927859  0.98948106    -0.80000
O1027       O  0.51468528  0.40021042  0.98054785    -0.78600
C1028       C  0.60309372  0.01430918  0.49814147     0.83900
C1029       C  0.49636915  0.49361565  0.60911677     0.83600
O1030       O  0.56572775  0.42422879  0.51926001    -0.77600
C1031       C  0.89101623  0.48165515  0.99399166     0.84400
O1032       O  0.58520683  0.52191195  0.52876818    -0.77700
C1033       C  0.94636562  0.10250318  0.00545063     0.84500
C1034       C  0.99873316  0.00302195  0.89894565     0.84800
O1035       O  0.50069226  0.03714015  0.91675520    -0.80100
O1036       O  0.78106814  0.48759343  0.59235327    -0.77600
C1037       C  0.79592926  0.39492852  0.50580648     0.83400
O1038       O  0.83679074  0.02659559  0.96572426    -0.78700
O1039       O  0.74556605  0.46218752  0.91789392    -0.80200
O1040       O  0.65706012  0.47783786  0.52948879    -0.80000
O1041       O  0.71641473  0.01853497  0.59418768    -0.78600
Zn1042     Zn  0.79392118  0.48216373  0.53776479     1.55700
O1043       O  0.65932383  0.47139519  0.96964428    -0.80000
Cd1044     Cd  0.70288798  0.02025580  0.53891416     1.59700
Cd1045     Cd  0.76952259  0.04310835  0.97019165     1.59600
O1046       O  0.68058734  0.07709436  0.52141598    -0.80000
O1047       O  0.74879511  0.49959731  0.50540667    -1.90500
Cd1048     Cd  0.72652312  0.45434234  0.97250640     1.59900
O1049       O  0.73399619  0.09858637  0.98288680    -0.80000
O1050       O  0.75891066  0.39866776  0.98941444    -0.78600
C1051       C  0.85484507  0.01207069  0.49447385     0.83900
C1052       C  0.74930986  0.50329188  0.61029630     0.83600
O1053       O  0.81342446  0.42480266  0.52354152    -0.77600
C1054       C  0.64076388  0.48572522  0.99849486     0.84400
O1055       O  0.83925028  0.52164101  0.52559744    -0.77700
C1056       C  0.69719165  0.10427933  0.99984438     0.84500
C1057       C  0.74818428  0.99646177  0.90029877     0.84800
O1058       O  0.75061095  0.03121000  0.91695713    -0.80100
O1059       O  0.56329142  0.33085674  0.97029263    -0.76800
C1060       C  0.62516214  0.24962183  0.88305009     0.83400
O1061       O  0.53410746  0.21989644  0.51434276    -0.78700
O1062       O  0.68903310  0.16961971  0.97162896    -0.80200
O1063       O  0.71603370  0.28511852  0.51435245    -0.80000
O1064       O  0.61321984  0.35253352  0.51045346    -0.78600
Zn1065     Zn  0.58426288  0.27575389  0.95344682     1.55700
O1066       O  0.71677013  0.26436547  0.95644514    -0.80000
Cd1067     Cd  0.64897176  0.29643100  0.51952553     1.59700
Cd1068     Cd  0.60052973  0.20680760  0.51987269     1.59600
O1069       O  0.63928688  0.28337569  0.57535187    -0.80000
O1070       O  0.62457302  0.25133097  0.98754763    -1.90500
Cd1071     Cd  0.66659210  0.22520291  0.95315336     1.59900
O1072       O  0.60967816  0.21987629  0.57563675    -0.80000
O1073       O  0.64642473  0.22156235  0.89966176    -0.78600
C1074       C  0.51587725  0.24000833  0.98817488     0.83900
C1075       C  0.57748295  0.35795365  0.99267849     0.83600
O1076       O  0.60431249  0.27758509  0.90054976    -0.77600
C1077       C  0.73243636  0.26292588  0.48850159     0.84400
O1078       O  0.53255698  0.24112838  0.95619533    -0.77700
C1079       C  0.62451040  0.25161575  0.59265253     0.84500
C1080       C  0.67269766  0.14340279  0.49401765     0.84800
O1081       O  0.63616473  0.15013997  0.51091354    -0.80100
O1082       O  0.90320092  0.23136391  0.59297355    -0.77600
C1083       C  0.92276558  0.14244914  0.50540179     0.83400
O1084       O  0.95554404  0.28231957  0.97011035    -0.78700
O1085       O  0.87188197  0.21334030  0.91883259    -0.80200
O1086       O  0.77793963  0.22731139  0.52991877    -0.80000
O1087       O  0.83997143  0.26509153  0.59567348    -0.78600
Zn1088     Zn  0.91681608  0.22862396  0.53867522     1.55700
O1089       O  0.78546961  0.21186447  0.97119842    -0.80000
Cd1090     Cd  0.82471852  0.26810758  0.54072725     1.59700
Cd1091     Cd  0.88822338  0.29397860  0.97317356     1.59600
O1092       O  0.80208538  0.32570988  0.52573332    -0.80000
O1093       O  0.87108145  0.24780016  0.50713272    -1.90500
Cd1094     Cd  0.85303124  0.20147106  0.97343748     1.59900
O1095       O  0.85516571  0.34996030  0.98855401    -0.80000
O1096       O  0.88612998  0.14588027  0.98858469    -0.78600
C1097       C  0.97671125  0.26465875  0.49595430     0.83900
C1098       C  0.87231427  0.24805673  0.61121479     0.83600
O1099       O  0.93894653  0.17230962  0.52388417    -0.77600
C1100       C  0.76592244  0.23167316  0.99694622     0.84400
O1101       O  0.96351327  0.26712234  0.52892510    -0.77700
C1102       C  0.81882927  0.35461713  0.00618282     0.84500
C1103       C  0.87112570  0.24802773  0.90161568     0.84800
O1104       O  0.86971700  0.28254679  0.91894079    -0.80100
O1105       O  0.90974941  0.02195240  0.23277095    -0.77600
C1106       C  0.99839854  0.99346406  0.14932469     0.83400
O1107       O  0.98534303  0.89909430  0.27499194    -0.78700
O1108       O  0.59244107  0.47295506  0.23505731    -0.80200
O1109       O  0.51563674  0.59970945  0.26623011    -0.80000
O1110       O  0.91243864  0.52817981  0.29236632    -0.78600
Zn1111     Zn  0.95298776  0.98037887  0.22273431     1.55700
O1112       O  0.56869660  0.57203716  0.23078405    -0.80000
Cd1113     Cd  0.98038532  0.54533548  0.28655382     1.59700
Cd1114     Cd  0.51855106  0.95552870  0.28954298     1.59600
O1115       O  0.00078972  0.53734879  0.34069002    -0.80000
O1116       O  0.99920416  0.99850565  0.25383262    -1.90500
Cd1117     Cd  0.54696789  0.51303172  0.21971230     1.59900
O1118       O  0.49650466  0.96825868  0.34193351    -0.80000
O1119       O  0.53354625  0.50514593  0.16466069    -0.78600
C1120       C  0.94830857  0.89489015  0.25862522     0.83900
C1121       C  0.89361906  0.51346819  0.26394090     0.83600
O1122       O  0.96488006  0.98273504  0.16801278    -0.77600
C1123       C  0.55205550  0.60269247  0.24793673     0.84400
O1124       O  0.93155328  0.92414101  0.23976960    -0.77700
C1125       C  0.49864607  0.50312965  0.35848903     0.84500
C1126       C  0.60647558  0.98420102  0.26613047     0.84800
O1127       O  0.58590535  0.97220229  0.29493337    -0.80100
O1128       O  0.71655084  0.99133042  0.16830901    -0.77600
C1129       C  0.69748617  0.89696744  0.25050938     0.83400
O1130       O  0.66184931  0.52778746  0.29529695    -0.78700
O1131       O  0.74706033  0.96218079  0.34225205    -0.80200
O1132       O  0.84010931  0.47486346  0.23349913    -0.80000
O1133       O  0.78459042  0.51551627  0.16683251    -0.78600
Zn1134     Zn  0.70281711  0.98533667  0.22241832     1.55700
O1135       O  0.83619094  0.97088811  0.29323275    -0.80000
Cd1136     Cd  0.79636541  0.51818778  0.22257287     1.59700
Cd1137     Cd  0.72952210  0.54383404  0.29037641     1.59600
O1138       O  0.81873045  0.57536640  0.23995901    -0.80000
O1139       O  0.74859150  0.99984245  0.25524886    -1.90500
Cd1140     Cd  0.76821082  0.95381283  0.28822944     1.59900
O1141       O  0.76359418  0.59997383  0.27488025    -0.80000
O1142       O  0.73387256  0.89933905  0.26831620    -0.78600
C1143       C  0.64308506  0.51467655  0.26628716     0.83900
C1144       C  0.75024937  0.00343130  0.15052906     0.83600
O1145       O  0.68127101  0.92811737  0.23399616    -0.77600
C1146       C  0.85590009  0.98407778  0.26437427     0.84400
O1147       O  0.65875244  0.02525273  0.23537631    -0.77700
C1148       C  0.80103680  0.60442263  0.25861266     0.84500
C1149       C  0.74847564  0.49648906  0.35985033     0.84800
O1150       O  0.75014930  0.53137599  0.34313643    -0.80100
O1151       O  0.59775854  0.72864644  0.15125350    -0.77600
C1152       C  0.57595510  0.64279192  0.24473731     0.83400
O1153       O  0.53591728  0.77696254  0.27512026    -0.78700
O1154       O  0.63148091  0.71561680  0.32601380    -0.80200
O1155       O  0.71721506  0.73342043  0.21467589    -0.80000
O1156       O  0.65268829  0.77436604  0.15015540    -0.78600
Zn1157     Zn  0.58129239  0.72690637  0.20622999     1.55700
O1158       O  0.71344648  0.72090564  0.27412856    -0.80000
Cd1159     Cd  0.66919330  0.77353735  0.20576245     1.59700
Cd1160     Cd  0.60220758  0.79400424  0.27218121     1.59600
O1161       O  0.69167940  0.82961512  0.22580079    -0.80000
O1162       O  0.62437504  0.74940514  0.23870262    -1.90500
Cd1163     Cd  0.64690327  0.70481530  0.27183693     1.59900
O1164       O  0.63591317  0.85132316  0.26102725    -0.80000
O1165       O  0.61296746  0.64792387  0.26077633    -0.78600
C1166       C  0.51802342  0.75911718  0.24772445     0.83900
C1167       C  0.62495359  0.75153107  0.13344064     0.83600
O1168       O  0.55998476  0.67066078  0.22393659    -0.77600
C1169       C  0.73222355  0.73852210  0.24676427     0.84400
O1170       O  0.53359994  0.76466024  0.21563060    -0.77700
C1171       C  0.67396683  0.85692324  0.24630646     0.84500
C1172       C  0.62473005  0.74961730  0.34295617     0.84800
O1173       O  0.61776487  0.78357215  0.32611240    -0.80100
O1174       O  0.85234645  0.72136060  0.16940108    -0.77600
C1175       C  0.82424944  0.64486572  0.25875548     0.83400
O1176       O  0.78304552  0.78070528  0.28178111    -0.78700
O1177       O  0.88305251  0.71526128  0.34361890    -0.80200
O1178       O  0.95828799  0.72448698  0.22293571    -0.80000
O1179       O  0.89696826  0.77585334  0.16724398    -0.78600
Zn1180     Zn  0.83335797  0.72755567  0.22222226     1.55700
O1181       O  0.96537616  0.71798241  0.28257097    -0.80000
Cd1182     Cd  0.91639096  0.77102862  0.22100678     1.59700
Cd1183     Cd  0.85065037  0.79438163  0.28810329     1.59600
O1184       O  0.94324440  0.82519872  0.24032730    -0.80000
O1185       O  0.87401234  0.74894632  0.25657697    -1.90500
Cd1186     Cd  0.89756057  0.70396413  0.28815472     1.59900
O1187       O  0.88711094  0.85005454  0.27367629    -0.80000
O1188       O  0.86243152  0.64839694  0.27328090    -0.78600
C1189       C  0.77015513  0.76639173  0.25086452     0.83900
C1190       C  0.87418046  0.74825811  0.15121201     0.83600
O1191       O  0.80657386  0.67474091  0.24146685    -0.77600
C1192       C  0.97991701  0.73128507  0.25160313     0.84400
O1193       O  0.79293220  0.77289394  0.22246709    -0.77700
C1194       C  0.92518067  0.85437588  0.25842504     0.84500
C1195       C  0.87215159  0.74836075  0.36081733     0.84800
O1196       O  0.86232571  0.78182988  0.34375333    -0.80100
O1197       O  0.52841988  0.97935283  0.09073611    -0.77600
C1198       C  0.55116795  0.89616477  0.99774296     0.83400
O1199       O  0.58609156  0.52914654  0.46904161    -0.78700
O1200       O  0.99678061  0.96804730  0.41537382    -0.80200
O1201       O  0.90656997  0.97148231  0.02473329    -0.80000
O1202       O  0.96332827  0.50929055  0.09343410    -0.78600
Zn1203     Zn  0.54214520  0.97904066  0.03657896     1.55700
O1204       O  0.90998670  0.96884539  0.46480101    -0.80000
Cd1205     Cd  0.95042893  0.51451528  0.03785574     1.59700
Cd1206     Cd  0.51842208  0.54468131  0.47159425     1.59600
O1207       O  0.92837622  0.57240792  0.02285527    -0.80000
O1208       O  0.49764603  0.99802238  0.00407581    -1.90500
Cd1209     Cd  0.97786248  0.95472871  0.46853317     1.59900
O1210       O  0.98406396  0.59927839  0.48948098    -0.80000
O1211       O  0.51468557  0.90021054  0.48054781    -0.78600
C1212       C  0.60309378  0.51430914  0.99814166     0.83900
C1213       C  0.49636902  0.99361558  0.10911676     0.83600
O1214       O  0.56572783  0.92422881  0.01925999    -0.77600
C1215       C  0.89101637  0.98165505  0.49399105     0.84400
O1216       O  0.58520689  0.02191187  0.02876802    -0.77700
C1217       C  0.94636538  0.60250304  0.50545065     0.84500
C1218       C  0.99873296  0.50302165  0.39894563     0.84800
O1219       O  0.50069221  0.53714010  0.41675507    -0.80100
O1220       O  0.78106811  0.98759351  0.09235338    -0.77600
C1221       C  0.79592923  0.89492860  0.00580642     0.83400
O1222       O  0.83679092  0.52659551  0.46572420    -0.78700
O1223       O  0.74556591  0.96218752  0.41789386    -0.80200
O1224       O  0.65706038  0.97783774  0.02948886    -0.80000
O1225       O  0.71641467  0.51853494  0.09418768    -0.78600
Zn1226     Zn  0.79392111  0.98216383  0.03776478     1.55700
O1227       O  0.65932376  0.97139521  0.46964422    -0.80000
Cd1228     Cd  0.70288783  0.52025570  0.03891425     1.59700
Cd1229     Cd  0.76952275  0.54310823  0.47019172     1.59600
O1230       O  0.68058738  0.57709439  0.02141588    -0.80000
O1231       O  0.74879513  0.99959743  0.00540658    -1.90500
Cd1232     Cd  0.72652303  0.95434218  0.47250639     1.59900
O1233       O  0.73399641  0.59858636  0.48288680    -0.80000
O1234       O  0.75891066  0.89866761  0.48941459    -0.78600
C1235       C  0.85484519  0.51207091  0.99447309     0.83900
C1236       C  0.74930956  0.00329198  0.11029640     0.83600
O1237       O  0.81342447  0.92480279  0.02354146    -0.77600
C1238       C  0.64076377  0.98572532  0.49849500     0.84400
O1239       O  0.83925017  0.02164111  0.02559751    -0.77700
C1240       C  0.69719202  0.60427947  0.49984407     0.84500
C1241       C  0.74818429  0.49646169  0.40029875     0.84800
O1242       O  0.75061112  0.53120983  0.41695708    -0.80100
O1243       O  0.56329168  0.83085670  0.47029249    -0.76800
C1244       C  0.62516225  0.74962183  0.38305007     0.83400
O1245       O  0.53410704  0.71989614  0.01434278    -0.78700
O1246       O  0.68903349  0.66961994  0.47162885    -0.80200
O1247       O  0.71603352  0.78511809  0.01435244    -0.80000
O1248       O  0.61321967  0.85253338  0.01045330    -0.78600
Zn1249     Zn  0.58426303  0.77575389  0.45344679     1.55700
O1250       O  0.71677033  0.76436557  0.45644525    -0.80000
Cd1251     Cd  0.64897156  0.79643084  0.01952549     1.59700
Cd1252     Cd  0.60052934  0.70680741  0.01987283     1.59600
O1253       O  0.63928652  0.78337565  0.07535182    -0.80000
O1254       O  0.62457327  0.75133103  0.48754744    -1.90500
Cd1255     Cd  0.66659231  0.72520302  0.45315329     1.59900
O1256       O  0.60967774  0.71987620  0.07563698    -0.80000
O1257       O  0.64642487  0.72156232  0.39966173    -0.78600
C1258       C  0.51587722  0.74000840  0.48817508     0.83900
C1259       C  0.57748352  0.85795384  0.49267862     0.83600
O1260       O  0.60431269  0.77758503  0.40054970    -0.77600
C1261       C  0.73243639  0.76292596  0.98850219     0.84400
O1262       O  0.53255696  0.74112855  0.45619531    -0.77700
C1263       C  0.62451012  0.75161588  0.09265259     0.84500
C1264       C  0.67269843  0.64340309  0.99401698     0.84800
O1265       O  0.63616432  0.65013984  0.01091371    -0.80100
O1266       O  0.90320114  0.73136397  0.09297351    -0.77600
C1267       C  0.92276566  0.64244923  0.00540175     0.83400
O1268       O  0.95554386  0.78231927  0.47011047    -0.78700
O1269       O  0.87188181  0.71334019  0.41883252    -0.80200
O1270       O  0.77793988  0.72731144  0.02991886    -0.80000
O1271       O  0.83997155  0.76509143  0.09567346    -0.78600
Zn1272     Zn  0.91681627  0.72862408  0.03867511     1.55700
O1273       O  0.78546942  0.71186413  0.47119833    -0.80000
Cd1274     Cd  0.82471870  0.76810766  0.04072716     1.59700
Cd1275     Cd  0.88822323  0.79397843  0.47317370     1.59600
O1276       O  0.80208559  0.82570987  0.02573324    -0.80000
O1277       O  0.87108160  0.74780025  0.00713250    -1.90500
Cd1278     Cd  0.85303108  0.70147086  0.47343745     1.59900
O1279       O  0.85516574  0.84996014  0.48855423    -0.80000
O1280       O  0.88612984  0.64588010  0.48858465    -0.78600
C1281       C  0.97671139  0.76465903  0.99595403     0.83900
C1282       C  0.87231441  0.74805678  0.11121478     0.83600
O1283       O  0.93894672  0.67230978  0.02388400    -0.77600
C1284       C  0.76592236  0.73167321  0.49694670     0.84400
O1285       O  0.96351324  0.76712257  0.02892493    -0.77700
C1286       C  0.81882936  0.85461704  0.50618293     0.84500
C1287       C  0.87112556  0.74802815  0.40161576     0.84800
O1288       O  0.86971686  0.78254668  0.41894099    -0.80100
O1289       O  0.90974937  0.02195266  0.73277085    -0.77600
C1290       C  0.99839932  0.99346428  0.64932456     0.83400
O1291       O  0.98534306  0.89909444  0.77499194    -0.78700
O1292       O  0.59244088  0.47295524  0.73505726    -0.80200
O1293       O  0.51563687  0.59970961  0.76622998    -0.80000
O1294       O  0.91243867  0.52818009  0.79236615    -0.78600
Zn1295     Zn  0.95298765  0.98037899  0.72273424     1.55700
O1296       O  0.56869670  0.57203716  0.73078403    -0.80000
Cd1297     Cd  0.98038536  0.54533561  0.78655371     1.59700
Cd1298     Cd  0.51855104  0.95552882  0.78954301     1.59600
O1299       O  0.00078965  0.53734887  0.84068990    -0.80000
O1300       O  0.99920406  0.99850565  0.75383259    -1.90500
Cd1301     Cd  0.54696771  0.51303177  0.71971233     1.59900
O1302       O  0.49650442  0.96825891  0.84193341    -0.80000
O1303       O  0.53354618  0.50514608  0.66466079    -0.78600
C1304       C  0.94830867  0.89489020  0.75862533     0.83900
C1305       C  0.89361911  0.51346851  0.76394089     0.83600
O1306       O  0.96487977  0.98273506  0.66801278    -0.77600
C1307       C  0.55205565  0.60269262  0.74793669     0.84400
O1308       O  0.93155329  0.92414105  0.73976956    -0.77700
C1309       C  0.49864609  0.50312976  0.85848894     0.84500
C1310       C  0.60647557  0.98420114  0.76613047     0.84800
O1311       O  0.58590531  0.97220240  0.79493356    -0.80100
O1312       O  0.71655088  0.99133038  0.66830899    -0.77600
C1313       C  0.69748616  0.89696745  0.75050935     0.83400
O1314       O  0.66184939  0.52778758  0.79529710    -0.78700
O1315       O  0.74706039  0.96218096  0.84225213    -0.80200
O1316       O  0.84010945  0.47486362  0.73349912    -0.80000
O1317       O  0.78459034  0.51551643  0.66683250    -0.78600
Zn1318     Zn  0.70281711  0.98533662  0.72241836     1.55700
O1319       O  0.83619092  0.97088835  0.79323274    -0.80000
Cd1320     Cd  0.79636545  0.51818792  0.72257293     1.59700
Cd1321     Cd  0.72952212  0.54383415  0.79037646     1.59600
O1322       O  0.81873050  0.57536657  0.73995917    -0.80000
O1323       O  0.74859151  0.99984235  0.75524886    -1.90500
Cd1324     Cd  0.76821087  0.95381291  0.78822949     1.59900
O1325       O  0.76359410  0.59997394  0.77488026    -0.80000
O1326       O  0.73387273  0.89933906  0.76831630    -0.78600
C1327       C  0.64308514  0.51467654  0.76628659     0.83900
C1328       C  0.75024919  0.00343104  0.65052904     0.83600
O1329       O  0.68127107  0.92811725  0.73399623    -0.77600
C1330       C  0.85590013  0.98407797  0.76437423     0.84400
O1331       O  0.65875254  0.02525261  0.73537628    -0.77700
C1332       C  0.80103675  0.60442272  0.75861271     0.84500
C1333       C  0.74847569  0.49648924  0.85985034     0.84800
O1334       O  0.75014936  0.53137605  0.84313642    -0.80100
O1335       O  0.59775888  0.72864652  0.65125335    -0.77600
C1336       C  0.57595527  0.64279194  0.74473725     0.83400
O1337       O  0.53591728  0.77696242  0.77512011    -0.78700
O1338       O  0.63148076  0.71561670  0.82601386    -0.80200
O1339       O  0.71721502  0.73342052  0.71467610    -0.80000
O1340       O  0.65268868  0.77436608  0.65015543    -0.78600
Zn1341     Zn  0.58129272  0.72690628  0.70622981     1.55700
O1342       O  0.71344662  0.72090564  0.77412870    -0.80000
Cd1343     Cd  0.66919345  0.77353742  0.70576251     1.59700
Cd1344     Cd  0.60220768  0.79400410  0.77218126     1.59600
O1345       O  0.69167961  0.82961518  0.72580078    -0.80000
O1346       O  0.62437502  0.74940520  0.73870269    -1.90500
Cd1347     Cd  0.64690333  0.70481535  0.77183698     1.59900
O1348       O  0.63591337  0.85132294  0.76102732    -0.80000
O1349       O  0.61296753  0.64792393  0.76077635    -0.78600
C1350       C  0.51802349  0.75911728  0.74772438     0.83900
C1351       C  0.62495382  0.75153086  0.63344056     0.83600
O1352       O  0.55998508  0.67066072  0.72393628    -0.77600
C1353       C  0.73222367  0.73852212  0.74676448     0.84400
O1354       O  0.53360026  0.76465999  0.71563040    -0.77700
C1355       C  0.67396725  0.85692301  0.74630644     0.84500
C1356       C  0.62472980  0.74961760  0.84295631     0.84800
O1357       O  0.61776489  0.78357206  0.82611247    -0.80100
O1358       O  0.85234647  0.72136065  0.66940117    -0.77600
C1359       C  0.82424933  0.64486587  0.75875553     0.83400
O1360       O  0.78304553  0.78070541  0.78178132    -0.78700
O1361       O  0.88305264  0.71526141  0.84361873    -0.80200
O1362       O  0.95828799  0.72448731  0.72293553    -0.80000
O1363       O  0.89696802  0.77585354  0.66724386    -0.78600
Zn1364     Zn  0.83335796  0.72755575  0.72222232     1.55700
O1365       O  0.96537619  0.71798255  0.78257076    -0.80000
Cd1366     Cd  0.91639078  0.77102878  0.72100667     1.59700
Cd1367     Cd  0.85065038  0.79438177  0.78810334     1.59600
O1368       O  0.94324430  0.82519881  0.74032717    -0.80000
O1369       O  0.87401226  0.74894646  0.75657690    -1.90500
Cd1370     Cd  0.89756057  0.70396422  0.78815456     1.59900
O1371       O  0.88711100  0.85005464  0.77367635    -0.80000
O1372       O  0.86243151  0.64839698  0.77328082    -0.78600
C1373       C  0.77015522  0.76639170  0.75086465     0.83900
C1374       C  0.87418029  0.74825803  0.65121201     0.83600
O1375       O  0.80657383  0.67474105  0.74146693    -0.77600
C1376       C  0.97991715  0.73128535  0.75160326     0.84400
O1377       O  0.79293219  0.77289406  0.72246724    -0.77700
C1378       C  0.92518060  0.85437600  0.75842512     0.84500
C1379       C  0.87215174  0.74836047  0.86081726     0.84800
O1380       O  0.86232575  0.78183002  0.84375339    -0.80100
O1381       O  0.52841998  0.97935293  0.59073610    -0.77600
C1382       C  0.55116855  0.89616506  0.49774331     0.83400
O1383       O  0.58609186  0.52914647  0.96904160    -0.78700
O1384       O  0.99678058  0.96804732  0.91537378    -0.80200
O1385       O  0.90657010  0.97148202  0.52473356    -0.80000
O1386       O  0.96332845  0.50929066  0.59343395    -0.78600
Zn1387     Zn  0.54214530  0.97904078  0.53657900     1.55700
O1388       O  0.90998654  0.96884550  0.96480073    -0.80000
Cd1389     Cd  0.95042898  0.51451531  0.53785568     1.59700
Cd1390     Cd  0.51842237  0.54468140  0.97159426     1.59600
O1391       O  0.92837606  0.57240801  0.52285525    -0.80000
O1392       O  0.49764625  0.99802271  0.50407594    -1.90500
Cd1393     Cd  0.97786229  0.95472863  0.96853305     1.59900
O1394       O  0.98406403  0.59927854  0.98948110    -0.80000
O1395       O  0.51468544  0.90021042  0.98054788    -0.78600
C1396       C  0.60309374  0.51430934  0.49814190     0.83900
C1397       C  0.49636910  0.99361566  0.60911674     0.83600
O1398       O  0.56572792  0.92422879  0.51925999    -0.77600
C1399       C  0.89101630  0.98165523  0.99399162     0.84400
O1400       O  0.58520685  0.02191206  0.52876815    -0.77700
C1401       C  0.94636570  0.60250314  0.00545058     0.84500
C1402       C  0.99873310  0.50302157  0.89894559     0.84800
O1403       O  0.50069239  0.53714017  0.91675520    -0.80100
O1404       O  0.78106813  0.98759355  0.59235326    -0.77600
C1405       C  0.79592930  0.89492866  0.50580650     0.83400
O1406       O  0.83679092  0.52659564  0.96572424    -0.78700
O1407       O  0.74556600  0.96218751  0.91789395    -0.80200
O1408       O  0.65706026  0.97783793  0.52948863    -0.80000
O1409       O  0.71641479  0.51853498  0.59418764    -0.78600
Zn1410     Zn  0.79392114  0.98216385  0.53776476     1.55700
O1411       O  0.65932364  0.97139522  0.96964441    -0.80000
Cd1412     Cd  0.70288792  0.52025579  0.53891417     1.59700
Cd1413     Cd  0.76952273  0.54310834  0.97019164     1.59600
O1414       O  0.68058741  0.57709444  0.52141585    -0.80000
O1415       O  0.74879515  0.99959740  0.50540642    -1.90500
Cd1416     Cd  0.72652306  0.95434229  0.97250644     1.59900
O1417       O  0.73399631  0.59858623  0.98288669    -0.80000
O1418       O  0.75891064  0.89866776  0.98941458    -0.78600
C1419       C  0.85484518  0.51207075  0.49447381     0.83900
C1420       C  0.74930980  0.00329172  0.61029632     0.83600
O1421       O  0.81342437  0.92480284  0.52354147    -0.77600
C1422       C  0.64076376  0.98572518  0.99849425     0.84400
O1423       O  0.83925033  0.02164112  0.52559742    -0.77700
C1424       C  0.69719155  0.60427925  0.99984454     0.84500
C1425       C  0.74818433  0.49646176  0.90029874     0.84800
O1426       O  0.75061112  0.53121000  0.91695709    -0.80100
O1427       O  0.56329124  0.83085654  0.97029249    -0.76800
C1428       C  0.62516234  0.74962155  0.88305006     0.83400
O1429       O  0.53410737  0.71989639  0.51434281    -0.78700
O1430       O  0.68903303  0.66961968  0.97162892    -0.80200
O1431       O  0.71603383  0.78511849  0.51435254    -0.80000
O1432       O  0.61321996  0.85253345  0.51045345    -0.78600
Zn1433     Zn  0.58426275  0.77575380  0.95344680     1.55700
O1434       O  0.71677004  0.76436536  0.95644512    -0.80000
Cd1435     Cd  0.64897187  0.79643098  0.51952552     1.59700
Cd1436     Cd  0.60052969  0.70680753  0.51987265     1.59600
O1437       O  0.63928688  0.78337569  0.57535190    -0.80000
O1438       O  0.62457287  0.75133090  0.98754763    -1.90500
Cd1439     Cd  0.66659199  0.72520286  0.95315336     1.59900
O1440       O  0.60967813  0.71987625  0.57563670    -0.80000
O1441       O  0.64642473  0.72156236  0.89966171    -0.78600
C1442       C  0.51587708  0.74000827  0.98817493     0.83900
C1443       C  0.57748361  0.85795395  0.99267895     0.83600
O1444       O  0.60431237  0.77758499  0.90054976    -0.77600
C1445       C  0.73243660  0.76292597  0.48850160     0.84400
O1446       O  0.53255681  0.74112834  0.95619528    -0.77700
C1447       C  0.62451064  0.75161611  0.59265253     0.84500
C1448       C  0.67269826  0.64340301  0.49401711     0.84800
O1449       O  0.63616469  0.65013993  0.51091348    -0.80100
O1450       O  0.90320097  0.73136399  0.59297351    -0.77600
C1451       C  0.92276579  0.64244931  0.50540183     0.83400
O1452       O  0.95554394  0.78231946  0.97011037    -0.78700
O1453       O  0.87188186  0.71334020  0.91883264    -0.80200
O1454       O  0.77793957  0.72731123  0.52991872    -0.80000
O1455       O  0.83997141  0.76509142  0.59567351    -0.78600
Zn1456     Zn  0.91681607  0.72862406  0.53867516     1.55700
O1457       O  0.78546941  0.71186446  0.97119845    -0.80000
Cd1458     Cd  0.82471845  0.76810754  0.54072726     1.59700
Cd1459     Cd  0.88822327  0.79397855  0.97317353     1.59600
O1460       O  0.80208542  0.82570984  0.52573325    -0.80000
O1461       O  0.87108124  0.74780019  0.50713270    -1.90500
Cd1462     Cd  0.85303112  0.70147100  0.97343748     1.59900
O1463       O  0.85516569  0.84996034  0.98855409    -0.80000
O1464       O  0.88612995  0.64588017  0.98858466    -0.78600
C1465       C  0.97671139  0.76465899  0.49595403     0.83900
C1466       C  0.87231440  0.74805665  0.61121477     0.83600
O1467       O  0.93894642  0.67230974  0.52388411    -0.77600
C1468       C  0.76592243  0.73167320  0.99694620     0.84400
O1469       O  0.96351316  0.76712245  0.52892502    -0.77700
C1470       C  0.81882941  0.85461719  0.00618277     0.84500
C1471       C  0.87112559  0.74802841  0.90161567     0.84800
O1472       O  0.86971687  0.78254669  0.91894073    -0.80100
loop_ 
_geom_bond_atom_site_label_1 
_geom_bond_atom_site_label_2 
_geom_bond_distance 
_geom_bond_site_symmetry_2 
_ccdc_geom_bond_type 
O1           Zn7   1.918       .  S
O1          C385   1.259       .  A
C2           O18   1.271       .  A
C2         O1119   1.271       .  A
C2          C845   1.461       .  S
O3           C16   1.292       .  A
O3         Cd746   2.140       .  S
O4          C390   1.262       .  A
O4          Cd13   1.984   1_565  S
O5           C19   1.296       .  A
O5         Cd745   2.171   1_455  S
O6           C17   1.275       .  A
O6           Cd9   2.158       .  S
Zn7          O18   2.017       .  S
Zn7          O20   2.011       .  S
Zn7          O12   1.906       .  S
O8           C19   1.271       .  A
O8          Cd13   2.044       .  S
Cd9          O11   2.083       .  S
Cd9         O741   2.171       .  S
Cd9         O380   2.000   1_545  S
Cd10         O14   2.054   1_455  S
Cd10         O23   2.139       .  S
Cd10        O739   2.140   1_455  S
Cd10        O748   1.988   1_455  S
O11         C757   1.274       .  A
O12        Cd377   2.000       .  S
O12        Cd746   1.988       .  S
O12       Cd1117   1.962       .  S
Cd13         O15   2.058       .  S
Cd13       O1116   1.962   1_445  S
O14         C389   1.272       .  A
O15        C1106   1.271   1_445  A
C16          O20   1.274       .  A
C16          C90   1.476       .  S
C17         O369   1.259       .  A
C17         C410   1.487   1_545  S
C19          C48   1.480       .  S
C21         O747   1.274   1_655  A
C21         O382   1.272   1_545  A
C21         C850   1.468       .  S
C22          O23   1.274       .  A
C22         O372   1.262       .  A
C22         C407   1.483       .  S
O24         Zn30   2.013       .  S
O24          C40   1.271       .  A
C25          O41   1.271       .  A
C25          O38   1.295       .  A
C25          C67   1.477       .  S
O26          C39   1.274       .  A
O26         Cd33   2.139       .  S
O27         C413   1.273       .  A
O27         Cd36   2.077       .  S
O28         C410   1.259       .  A
O28         Cd32   1.979   1_565  S
O29         C408   1.270       .  A
O29         Cd32   2.059       .  S
Zn30         O41   1.990       .  S
Zn30         O43   1.922       .  S
Zn30         O35   1.904       .  S
O31          C42   1.275       .  A
O31         Cd36   2.159       .  S
Cd32         O34   2.055       .  S
Cd32        O403   1.963   1_545  S
Cd33         O37   2.148       .  S
Cd33         O46   2.061       .  S
Cd33        O403   1.989   1_545  S
O34          C44   1.273       .  A
O35         Cd36   1.998       .  S
O35        Cd400   1.963       .  S
O35        Cd401   1.989       .  S
Cd36         O38   2.162       .  S
O37          C44   1.293       .  A
C39         O411   1.262       .  A
C39         C390   1.483   1_545  S
C40         O397   1.270       .  A
C40         C132   1.460       .  S
C42         O396   1.259       .  A
C42         C385   1.487       .  S
O43         C407   1.262       .  A
C44          C71   1.475       .  S
C45          O46   1.273   1_565  A
C45         O395   1.273       .  A
C45         C137   1.468       .  S
O47         Zn53   2.054       .  S
O47          C63   1.278       .  A
C48          O64   1.272       .  A
C48          O61   1.289       .  A
O49          C62   1.274       .  A
O49         Cd56   2.102       .  S
O50          C68   1.270       .  A
O50         Cd59   2.048       .  S
O51          C65   1.266       .  A
O51         Cd55   1.989       .  S
O52          C63   1.276       .  A
O52         Cd55   2.084       .  S
Zn53         O64   2.017       .  S
Zn53         O66   1.932       .  S
Zn53         O58   1.915       .  S
O54          C65   1.273       .  A
O54         Cd59   2.102       .  S
Cd55         O57   2.058       .  S
Cd55         O58   1.967       .  S
Cd56         O60   2.140       .  S
Cd56         O69   2.046       .  S
Cd56         O58   1.996       .  S
O57          C67   1.271       .  A
O58         Cd59   1.998       .  S
Cd59         O61   2.135       .  S
O60          C67   1.290       .  A
C62          O66   1.267       .  A
C62         C824   1.471   1_455  S
C63         C159   1.480       .  S
C65          C85   1.470       .  S
C68          O69   1.269       .  A
C68         C140   1.455       .  S
O70         Zn76   2.009       .  S
O70          C86   1.269       .  A
C71          O87   1.271       .  A
C71          O84   1.292       .  A
O72          C85   1.277       .  A
O72         Cd79   2.129       .  S
O73          C91   1.277       .  A
O73         Cd82   2.090       .  S
O74          C88   1.257       .  A
O74         Cd78   1.977       .  S
O75          C86   1.269       .  A
O75         Cd78   2.050       .  S
Zn76         O87   2.000       .  S
Zn76         O89   1.916       .  S
Zn76         O81   1.896       .  S
O77          C88   1.277       .  A
O77         Cd82   2.131       .  S
Cd78         O80   2.045       .  S
Cd78         O81   1.952       .  S
Cd79         O83   2.162       .  S
Cd79         O92   2.093       .  S
Cd79         O81   1.987       .  S
O80          C90   1.271       .  A
O81         Cd82   1.985       .  S
Cd82         O84   2.148       .  S
O83          C90   1.293       .  A
C85          O89   1.256       .  A
C86         C178   1.453       .  S
C88         C798   1.471       .  S
C91          O92   1.278       .  A
C91         C183   1.480       .  S
O93         Zn99   2.006       .  S
O93         C109   1.270   1_455  A
C94         O110   1.273   1_556  A
C94         O291   1.292       .  A
C94         C339   1.482       .  S
O95         C292   1.275       .  A
O95        Cd102   2.137       .  S
O96         C482   1.271       .  A
O96        Cd105   2.053       .  S
O97         C295   1.260   1_554  A
O97        Cd469   1.981       .  S
O98        C1213   1.272   1_545  A
O98        Cd101   2.065       .  S
Zn99        O110   2.004       .  S
Zn99        O112   1.919       .  S
Zn99        O104   1.912   1_455  S
O100        C111   1.273       .  A
O100       Cd105   2.137       .  S
Cd101       O103   2.055       .  S
Cd101       O465   1.981   1_545  S
Cd101      O1208   1.963   1_545  S
Cd102       O115   2.081       .  S
Cd102       O842   2.147   1_455  S
Cd102       O656   2.002   1_445  S
O103        C297   1.273       .  A
O104      Cd1205   1.963       .  S
O104       Cd654   2.002   1_654  S
O104      Cd1025   1.991   1_554  S
Cd105       O843   2.134       .  S
Cd105      O1024   1.991       .  S
O106        C113   1.293       .  A
O106       Cd838   2.147       .  S
O107        C278   1.292       .  A
O107       Cd841   2.134   1_455  S
C108        O279   1.275       .  A
C108        O480   1.260   1_556  A
C108        C686   1.479   1_545  S
C109       O1202   1.272       .  A
C109        C738   1.461       .  S
C111        O281   1.260       .  A
C111        C683   1.481       .  S
O112        C476   1.259   1_554  A
C113        O287   1.273       .  A
C113        C347   1.475       .  S
C114        O464   1.271   1_545  A
C114        O851   1.273       .  A
C114        C757   1.468       .  S
O115        C850   1.273   1_455  A
O116       Zn122   2.024       .  S
O116        C132   1.273       .  A
C117        O133   1.273       .  A
C117        O314   1.291   1_554  A
C117        C366   1.475       .  S
O118        C315   1.274       .  A
O118       Cd125   2.136       .  S
O119        C505   1.273       .  A
O119       Cd128   2.076       .  S
O120        C318   1.260   1_554  A
O120       Cd492   1.981       .  S
O121        C500   1.270       .  A
O121       Cd124   2.052       .  S
Zn122       O133   2.005       .  S
Zn122       O135   1.922       .  S
Zn122       O127   1.908       .  S
O123        C134   1.275       .  A
O123       Cd128   2.137       .  S
Cd124       O126   2.053       .  S
Cd124       O488   1.981   1_545  S
Cd124       O495   1.970   1_545  S
Cd125       O129   2.140       .  S
Cd125       O138   2.057       .  S
Cd125       O679   1.989   1_545  S
O126        C320   1.272   1_554  A
O127       Cd492   1.970       .  S
O127       Cd677   1.989   1_554  S
O127       Cd312   2.001   1_554  S
Cd128       O130   2.140       .  S
Cd128       O311   2.001       .  S
O129        C136   1.294       .  A
O130        C301   1.291       .  A
C131        O302   1.274       .  A
C131        O503   1.261   1_556  A
C131        C663   1.481   1_545  S
C132        O489   1.270       .  A
C134        O304   1.260       .  A
C134        C660   1.479       .  S
O135        C499   1.261   1_554  A
C136        O310   1.272       .  A
C136        C344   1.482       .  S
C137        O138   1.270   1_565  A
C137        O487   1.273       .  A
O139       Zn145   1.980       .  S
O139        C155   1.268       .  A
C140        O156   1.272       .  A
C140        O153   1.269       .  A
O141        C338   1.281   1_554  A
O141       Cd148   2.092       .  S
O142        C344   1.267       .  A
O142       Cd151   2.030       .  S
O143        C157   1.279   1_554  A
O143       Cd147   2.096       .  S
O144        C339   1.288   1_554  A
O144       Cd147   2.139       .  S
Zn145       O156   2.011       .  S
Zn145       O158   1.931       .  S
Zn145       O150   1.925       .  S
O146        C341   1.263       .  A
O146       Cd151   1.984       .  S
Cd147       O149   2.086       .  S
Cd147       O334   2.000   1_554  S
Cd148       O152   2.088       .  S
Cd148       O161   2.150       .  S
Cd148       O334   1.982   1_554  S
O149        C159   1.275       .  A
O150       Cd151   1.976       .  S
O150       Cd331   2.000       .  S
O150       Cd332   1.982       .  S
Cd151       O153   2.045       .  S
O152        C159   1.274       .  A
C154        O158   1.264       .  A
C154        O325   1.281       .  A
C154       C1097   1.467   1_455  S
C155        O328   1.288       .  A
C155        C278   1.482       .  S
C157        O330   1.263       .  A
C157        C364   1.473       .  S
C160        O161   1.291   1_556  A
C160        O326   1.266       .  A
C160        C320   1.482       .  S
O162       Zn168   2.012       .  S
O162        C178   1.271       .  A
C163        O179   1.270       .  A
C163        O360   1.287   1_554  A
C163        C297   1.475       .  S
O164        C361   1.279       .  A
O164       Cd171   2.101       .  S
O165        C183   1.276       .  A
O165       Cd174   2.093       .  S
O166        C364   1.263   1_554  A
O166       Cd170   1.977       .  S
O167        C178   1.271       .  A
O167       Cd170   2.054       .  S
Zn168       O179   2.005       .  S
Zn168       O181   1.914       .  S
Zn168       O173   1.921       .  S
O169        C180   1.277       .  A
O169       Cd174   2.101       .  S
Cd170       O172   2.052       .  S
Cd170       O173   1.978       .  S
Cd171       O175   2.139       .  S
Cd171       O184   2.085       .  S
Cd171       O357   1.991       .  S
O172        C366   1.270       .  A
O173       Cd355   1.991   1_554  S
O173       Cd358   2.003   1_554  S
Cd174       O176   2.131       .  S
Cd174       O357   2.003       .  S
O175        C182   1.289       .  A
O176        C347   1.287       .  A
C177        O181   1.262   1_556  A
C177        O348   1.279       .  A
C177       C1074   1.467       .  S
C180        O350   1.263       .  A
C180        C341   1.473       .  S
C182        O356   1.270       .  A
C182        C301   1.475       .  S
C183        O184   1.274       .  A
O185       Zn191   1.918       .  S
O185        C569   1.259       .  A
C186        O202   1.271       .  A
C186       O1303   1.271       .  A
C186       C1029   1.461       .  S
O187        C200   1.292       .  A
O187       Cd930   2.140       .  S
O188        C574   1.262       .  A
O188       Cd197   1.984   1_565  S
O189        C203   1.296       .  A
O189       Cd929   2.171   1_455  S
O190        C201   1.275       .  A
O190       Cd193   2.158       .  S
Zn191       O202   2.017       .  S
Zn191       O204   2.011       .  S
Zn191       O196   1.906       .  S
O192        C203   1.271       .  A
O192       Cd197   2.044       .  S
Cd193       O925   2.171       .  S
Cd193       O195   2.083       .  S
Cd193       O564   2.000   1_545  S
Cd194       O923   2.140   1_455  S
Cd194       O198   2.054   1_455  S
Cd194       O207   2.139       .  S
Cd194       O932   1.988   1_455  S
O195        C941   1.274       .  A
O196       Cd561   2.000       .  S
O196       Cd930   1.988       .  S
O196      Cd1301   1.962       .  S
Cd197       O199   2.058       .  S
Cd197      O1300   1.962   1_445  S
O198        C573   1.272       .  A
O199       C1290   1.271   1_445  A
C200        O204   1.274       .  A
C200        C274   1.476       .  S
C201        O553   1.259       .  A
C201        C594   1.487   1_545  S
C203        C232   1.480       .  S
C205        O931   1.274   1_655  A
C205        O566   1.272   1_545  A
C205       C1034   1.468       .  S
C206        O556   1.262       .  A
C206        O207   1.274       .  A
C206        C591   1.483       .  S
O208       Zn214   2.013       .  S
O208        C224   1.271       .  A
C209        O225   1.271       .  A
C209        O222   1.295       .  A
C209        C251   1.477       .  S
O210        C223   1.274       .  A
O210       Cd217   2.139       .  S
O211        C597   1.273       .  A
O211       Cd220   2.077       .  S
O212        C594   1.259       .  A
O212       Cd216   1.979   1_565  S
O213        C592   1.270       .  A
O213       Cd216   2.059       .  S
Zn214       O225   1.990       .  S
Zn214       O227   1.922       .  S
Zn214       O219   1.904       .  S
O215        C226   1.275       .  A
O215       Cd220   2.159       .  S
Cd216       O218   2.055       .  S
Cd216       O587   1.963   1_545  S
Cd217       O221   2.148       .  S
Cd217       O230   2.061       .  S
Cd217       O587   1.989   1_545  S
O218        C228   1.273       .  A
O219       Cd584   1.963       .  S
O219       Cd585   1.989       .  S
O219       Cd220   1.998       .  S
Cd220       O222   2.162       .  S
O221        C228   1.293       .  A
C223        O595   1.262       .  A
C223        C574   1.483   1_545  S
C224        O581   1.270       .  A
C224        C316   1.460       .  S
C226        O580   1.259       .  A
C226        C569   1.487       .  S
O227        C591   1.262       .  A
C228        C255   1.475       .  S
C229        O579   1.273       .  A
C229        O230   1.273   1_565  A
C229        C321   1.468       .  S
O231       Zn237   2.054       .  S
O231        C247   1.278       .  A
C232        O248   1.272       .  A
C232        O245   1.289       .  A
O233        C246   1.274       .  A
O233       Cd240   2.102       .  S
O234        C252   1.270       .  A
O234       Cd243   2.048       .  S
O235        C249   1.266       .  A
O235       Cd239   1.989       .  S
O236        C247   1.276       .  A
O236       Cd239   2.084       .  S
Zn237       O248   2.017       .  S
Zn237       O250   1.932       .  S
Zn237       O242   1.915       .  S
O238        C249   1.273       .  A
O238       Cd243   2.102       .  S
Cd239       O241   2.058       .  S
Cd239       O242   1.967       .  S
Cd240       O244   2.140       .  S
Cd240       O253   2.046       .  S
Cd240       O242   1.996       .  S
O241        C251   1.271       .  A
O242       Cd243   1.998       .  S
Cd243       O245   2.135       .  S
O244        C251   1.290       .  A
C246        O250   1.267       .  A
C246       C1008   1.471   1_455  S
C247        C343   1.480       .  S
C249        C269   1.470       .  S
C252        O253   1.269       .  A
C252        C324   1.455       .  S
O254       Zn260   2.009       .  S
O254        C270   1.269       .  A
C255        O271   1.271       .  A
C255        O268   1.292       .  A
O256        C269   1.277       .  A
O256       Cd263   2.129       .  S
O257        C275   1.277       .  A
O257       Cd266   2.090       .  S
O258        C272   1.257       .  A
O258       Cd262   1.977       .  S
O259        C270   1.269       .  A
O259       Cd262   2.050       .  S
Zn260       O271   2.000       .  S
Zn260       O273   1.916       .  S
Zn260       O265   1.896       .  S
O261        C272   1.277       .  A
O261       Cd266   2.131       .  S
Cd262       O264   2.045       .  S
Cd262       O265   1.952       .  S
Cd263       O267   2.162       .  S
Cd263       O276   2.093       .  S
Cd263       O265   1.987       .  S
O264        C274   1.271       .  A
O265       Cd266   1.985       .  S
Cd266       O268   2.148       .  S
O267        C274   1.293       .  A
C269        O273   1.256       .  A
C270        C362   1.453       .  S
C272        C982   1.471       .  S
C275        O276   1.278       .  A
C275        C367   1.480       .  S
O277       Zn283   2.006       .  S
O277        C293   1.270   1_455  A
C278        O294   1.273       .  A
O279       Cd286   2.137       .  S
O280        C666   1.271       .  A
O280       Cd289   2.053       .  S
O281       Cd653   1.981       .  S
O282       C1397   1.272   1_545  A
O282       Cd285   2.065       .  S
Zn283       O294   2.004       .  S
Zn283       O296   1.919       .  S
Zn283       O288   1.912   1_455  S
O284        C295   1.273       .  A
O284       Cd289   2.137       .  S
Cd285       O649   1.981   1_545  S
Cd285       O287   2.055       .  S
Cd285      O1392   1.963   1_545  S
Cd286      O1026   2.147   1_455  S
Cd286       O299   2.081       .  S
Cd286       O472   2.002   1_446  S
O288      Cd1389   1.963       .  S
O288       Cd470   2.002   1_655  S
O288       Cd841   1.991       .  S
Cd289      O1027   2.134       .  S
Cd289       O840   1.991   1_556  S
O290        C297   1.293   1_556  A
O290      Cd1022   2.147       .  S
O291      Cd1025   2.134   1_455  S
C292        O664   1.260       .  A
C292        C502   1.479   1_545  S
C293       O1386   1.272       .  A
C293        C922   1.461       .  S
C295        C499   1.481       .  S
O296        C660   1.260       .  A
C298        O648   1.271   1_545  A
C298       O1035   1.273       .  A
C298        C941   1.468       .  S
O299       C1034   1.273   1_455  A
O300       Zn306   2.024       .  S
O300        C316   1.273       .  A
C301        O317   1.273       .  A
O302       Cd309   2.136       .  S
O303        C689   1.273       .  A
O303       Cd312   2.076       .  S
O304       Cd676   1.981       .  S
O305        C684   1.270       .  A
O305       Cd308   2.052       .  S
Zn306       O317   2.005       .  S
Zn306       O319   1.922       .  S
Zn306       O311   1.908       .  S
O307        C318   1.274       .  A
O307       Cd312   2.137       .  S
Cd308       O672   1.981   1_545  S
Cd308       O310   2.053       .  S
Cd308       O679   1.970   1_545  S
Cd309       O313   2.140       .  S
Cd309       O322   2.057       .  S
Cd309       O495   1.989   1_546  S
O311       Cd676   1.970       .  S
O311       Cd493   1.989       .  S
Cd312       O314   2.140       .  S
O313        C320   1.294       .  A
C315        O687   1.261       .  A
C315        C479   1.481   1_545  S
C316        O673   1.270       .  A
C318        C476   1.479       .  S
O319        C683   1.261       .  A
C321        O671   1.273       .  A
C321        O322   1.270   1_565  A
O323       Zn329   1.980       .  S
O323        C339   1.268       .  A
C324        O340   1.272       .  A
C324        O337   1.269       .  A
O325       Cd332   2.092       .  S
O326       Cd335   2.030       .  S
O327        C341   1.279       .  A
O327       Cd331   2.096       .  S
O328       Cd331   2.139       .  S
Zn329       O340   2.011       .  S
Zn329       O342   1.931       .  S
Zn329       O334   1.925       .  S
O330       Cd335   1.984       .  S
Cd331       O333   2.086       .  S
Cd332       O336   2.088       .  S
Cd332       O345   2.150       .  S
O333        C343   1.275       .  A
O334       Cd335   1.976       .  S
Cd335       O337   2.045       .  S
O336        C343   1.274       .  A
C338        O342   1.264       .  A
C338        C913   1.467   1_455  S
C344        O345   1.291       .  A
O346       Zn352   2.012       .  S
O346        C362   1.271       .  A
C347        O363   1.270       .  A
O348       Cd355   2.101       .  S
O349        C367   1.276       .  A
O349       Cd358   2.093       .  S
O350       Cd354   1.977       .  S
O351        C362   1.271       .  A
O351       Cd354   2.054       .  S
Zn352       O363   2.005       .  S
Zn352       O365   1.914       .  S
Zn352       O357   1.921       .  S
O353        C364   1.277       .  A
O353       Cd358   2.101       .  S
Cd354       O356   2.052       .  S
Cd354       O357   1.978       .  S
Cd355       O359   2.139       .  S
Cd355       O368   2.085       .  S
Cd358       O360   2.131       .  S
O359        C366   1.289   1_556  A
C361        O365   1.262       .  A
C361        C890   1.467       .  S
C367        O368   1.274       .  A
O369       Zn375   1.918   1_545  S
C370        O386   1.271       .  A
C370        O751   1.271   1_565  A
C370       C1213   1.461       .  S
O371        C384   1.292       .  A
O371      Cd1114   2.140       .  S
O372       Cd381   1.984       .  S
O373        C387   1.296       .  A
O373      Cd1113   2.171   1_455  S
O374        C385   1.275       .  A
O374       Cd377   2.158       .  S
Zn375       O386   2.017       .  S
Zn375       O388   2.011       .  S
Zn375       O380   1.906       .  S
O376        C387   1.271       .  A
O376       Cd381   2.044       .  S
Cd377      O1109   2.171       .  S
Cd377       O379   2.083       .  S
Cd378      O1107   2.140   1_455  S
Cd378       O382   2.054   1_455  S
Cd378       O391   2.139       .  S
Cd378      O1116   1.988   1_455  S
O379       C1125   1.274       .  A
O380      Cd1114   1.988       .  S
O380       Cd749   1.962   1_565  S
Cd381       O383   2.058       .  S
Cd381       O748   1.962   1_455  S
O383        C738   1.271   1_455  A
C384        O388   1.274       .  A
C384        C458   1.476       .  S
C387        C416   1.480       .  S
C389       O1115   1.274   1_655  A
C389       C1218   1.468       .  S
C390        O391   1.274       .  A
O392       Zn398   2.013       .  S
O392        C408   1.271   1_565  A
C393        O409   1.271       .  A
C393        O406   1.295       .  A
C393        C435   1.477       .  S
O394        C407   1.274       .  A
O394       Cd401   2.139       .  S
O395       Cd404   2.077       .  S
O396       Cd400   1.979       .  S
O397       Cd400   2.059       .  S
Zn398       O409   1.990       .  S
Zn398       O411   1.922   1_565  S
Zn398       O403   1.904       .  S
O399        C410   1.275       .  A
O399       Cd404   2.159       .  S
Cd400       O402   2.055       .  S
Cd401       O405   2.148       .  S
Cd401       O414   2.061       .  S
O402        C412   1.273       .  A
O403       Cd404   1.998       .  S
Cd404       O406   2.162       .  S
O405        C412   1.293       .  A
C408        C500   1.460       .  S
C412        C439   1.475       .  S
C413        O414   1.273       .  A
C413        C505   1.468       .  S
O415       Zn421   2.054       .  S
O415        C431   1.278       .  A
C416        O432   1.272       .  A
C416        O429   1.289       .  A
O417        C430   1.274       .  A
O417       Cd424   2.102       .  S
O418        C436   1.270       .  A
O418       Cd427   2.048       .  S
O419        C433   1.266       .  A
O419       Cd423   1.989       .  S
O420        C431   1.276       .  A
O420       Cd423   2.084       .  S
Zn421       O432   2.017       .  S
Zn421       O434   1.932       .  S
Zn421       O426   1.915       .  S
O422        C433   1.273       .  A
O422       Cd427   2.102       .  S
Cd423       O425   2.058       .  S
Cd423       O426   1.967       .  S
Cd424       O428   2.140       .  S
Cd424       O437   2.046       .  S
Cd424       O426   1.996       .  S
O425        C435   1.271       .  A
O426       Cd427   1.998       .  S
Cd427       O429   2.135       .  S
O428        C435   1.290       .  A
C430        O434   1.267       .  A
C430       C1192   1.471   1_455  S
C431        C527   1.480       .  S
C433        C453   1.470       .  S
C436        O437   1.269       .  A
C436        C508   1.455       .  S
O438       Zn444   2.009       .  S
O438        C454   1.269       .  A
C439        O455   1.271       .  A
C439        O452   1.292       .  A
O440        C453   1.277       .  A
O440       Cd447   2.129       .  S
O441        C459   1.277       .  A
O441       Cd450   2.090       .  S
O442        C456   1.257       .  A
O442       Cd446   1.977       .  S
O443        C454   1.269       .  A
O443       Cd446   2.050       .  S
Zn444       O455   2.000       .  S
Zn444       O457   1.916       .  S
Zn444       O449   1.896       .  S
O445        C456   1.277       .  A
O445       Cd450   2.131       .  S
Cd446       O448   2.045       .  S
Cd446       O449   1.952       .  S
Cd447       O451   2.162       .  S
Cd447       O460   2.093       .  S
Cd447       O449   1.987       .  S
O448        C458   1.271       .  A
O449       Cd450   1.985       .  S
Cd450       O452   2.148       .  S
O451        C458   1.293       .  A
C453        O457   1.256       .  A
C454        C546   1.453       .  S
C456       C1166   1.471       .  S
C459        O460   1.278       .  A
C459        C551   1.480       .  S
O461       Zn467   2.006       .  S
O461        C477   1.270   1_455  A
C462        O478   1.273   1_556  A
C462        O659   1.292       .  A
C462        C707   1.482       .  S
O463        C660   1.275       .  A
O463       Cd470   2.137       .  S
O464       Cd473   2.053       .  S
O465        C663   1.260   1_554  A
O466        C845   1.272       .  A
O466       Cd469   2.065       .  S
Zn467       O478   2.004       .  S
Zn467       O480   1.919   1_565  S
Zn467       O472   1.912   1_455  S
O468        C479   1.273       .  A
O468       Cd473   2.137       .  S
Cd469       O471   2.055       .  S
Cd469       O840   1.963       .  S
Cd470      O1210   2.147   1_455  S
Cd470       O483   2.081       .  S
O471        C665   1.273       .  A
O472       Cd837   1.963   1_565  S
O472      Cd1393   1.991   1_554  S
Cd473      O1211   2.134       .  S
Cd473      O1392   1.991       .  S
O474        C481   1.293       .  A
O474      Cd1206   2.147       .  S
O475        C646   1.292       .  A
O475      Cd1209   2.134   1_455  S
C476        O647   1.275       .  A
C477        O834   1.272   1_565  A
C477       C1106   1.461       .  S
C479        O649   1.260       .  A
C481        O655   1.273       .  A
C481        C715   1.475       .  S
C482       O1219   1.273       .  A
C482       C1125   1.468       .  S
O483       C1218   1.273   1_455  A
O484       Zn490   2.024       .  S
O484        C500   1.273   1_565  A
C485        O501   1.273       .  A
C485        O682   1.291   1_554  A
C485        C734   1.475       .  S
O486        C683   1.274       .  A
O486       Cd493   2.136       .  S
O487       Cd496   2.076       .  S
O488        C686   1.260   1_554  A
O489       Cd492   2.052       .  S
Zn490       O501   2.005       .  S
Zn490       O503   1.922   1_565  S
Zn490       O495   1.908       .  S
O491        C502   1.274       .  A
O491       Cd496   2.137       .  S
Cd492       O494   2.053       .  S
Cd493       O497   2.140       .  S
Cd493       O506   2.057       .  S
O494        C688   1.272   1_554  A
O495       Cd680   2.001   1_554  S
Cd496       O498   2.140       .  S
Cd496       O679   2.001       .  S
O497        C504   1.294       .  A
O498        C669   1.291       .  A
C499        O670   1.274       .  A
C502        O672   1.260       .  A
C504        O678   1.272       .  A
C504        C712   1.482       .  S
C505        O506   1.270       .  A
O507       Zn513   1.980       .  S
O507        C523   1.268       .  A
C508        O524   1.272       .  A
C508        O521   1.269       .  A
O509        C706   1.281   1_554  A
O509       Cd516   2.092       .  S
O510        C712   1.267       .  A
O510       Cd519   2.030       .  S
O511        C525   1.279   1_554  A
O511       Cd515   2.096       .  S
O512        C707   1.288   1_554  A
O512       Cd515   2.139       .  S
Zn513       O524   2.011       .  S
Zn513       O526   1.931       .  S
Zn513       O518   1.925       .  S
O514        C709   1.263       .  A
O514       Cd519   1.984       .  S
Cd515       O517   2.086       .  S
Cd515       O702   2.000   1_554  S
Cd516       O520   2.088       .  S
Cd516       O529   2.150       .  S
Cd516       O702   1.982   1_554  S
O517        C527   1.275       .  A
O518       Cd699   2.000       .  S
O518       Cd700   1.982       .  S
O518       Cd519   1.976       .  S
Cd519       O521   2.045       .  S
O520        C527   1.274       .  A
C522        O693   1.281       .  A
C522        O526   1.264       .  A
C522       C1465   1.467   1_455  S
C523        O696   1.288       .  A
C523        C646   1.482       .  S
C525        O698   1.263       .  A
C525        C732   1.473       .  S
C528        O694   1.267       .  A
C528        O529   1.291   1_556  A
C528        C688   1.482       .  S
O530       Zn536   2.012       .  S
O530        C546   1.271       .  A
C531        O547   1.270       .  A
C531        O728   1.287   1_554  A
C531        C665   1.475       .  S
O532        C729   1.279       .  A
O532       Cd539   2.101       .  S
O533        C551   1.276       .  A
O533       Cd542   2.093       .  S
O534        C732   1.263   1_554  A
O534       Cd538   1.977       .  S
O535        C546   1.271       .  A
O535       Cd538   2.054       .  S
Zn536       O547   2.005       .  S
Zn536       O549   1.914       .  S
Zn536       O541   1.921       .  S
O537        C548   1.277       .  A
O537       Cd542   2.101       .  S
Cd538       O540   2.052       .  S
Cd538       O541   1.978       .  S
Cd539       O543   2.139       .  S
Cd539       O552   2.085       .  S
Cd539       O725   1.991       .  S
O540        C734   1.270       .  A
O541       Cd723   1.991   1_554  S
O541       Cd726   2.003   1_554  S
Cd542       O544   2.131       .  S
Cd542       O725   2.003       .  S
O543        C550   1.289       .  A
O544        C715   1.287       .  A
C545        O716   1.279       .  A
C545        O549   1.262   1_556  A
C545       C1442   1.467       .  S
C548        O718   1.263       .  A
C548        C709   1.473       .  S
C550        O724   1.270       .  A
C550        C669   1.475       .  S
C551        O552   1.274       .  A
O553       Zn559   1.918   1_545  S
C554        O570   1.271       .  A
C554        O935   1.271   1_565  A
C554       C1397   1.461       .  S
O555        C568   1.292       .  A
O555      Cd1298   2.140       .  S
O556       Cd565   1.984       .  S
O557        C571   1.296       .  A
O557      Cd1297   2.171   1_455  S
O558        C569   1.275       .  A
O558       Cd561   2.158       .  S
Zn559       O570   2.017       .  S
Zn559       O572   2.011       .  S
Zn559       O564   1.906       .  S
O560        C571   1.271       .  A
O560       Cd565   2.044       .  S
Cd561      O1293   2.171       .  S
Cd561       O563   2.083       .  S
Cd562      O1291   2.140   1_455  S
Cd562       O566   2.054   1_455  S
Cd562       O575   2.139       .  S
Cd562      O1300   1.988   1_455  S
O563       C1309   1.274       .  A
O564      Cd1298   1.988       .  S
O564       Cd933   1.962   1_565  S
Cd565       O567   2.058       .  S
Cd565       O932   1.962   1_455  S
O567        C922   1.271   1_455  A
C568        O572   1.274       .  A
C568        C642   1.476       .  S
C571        C600   1.480       .  S
C573       O1299   1.274   1_655  A
C573       C1402   1.468       .  S
C574        O575   1.274       .  A
O576       Zn582   2.013       .  S
O576        C592   1.271   1_565  A
C577        O593   1.271       .  A
C577        O590   1.295       .  A
C577        C619   1.477       .  S
O578        C591   1.274       .  A
O578       Cd585   2.139       .  S
O579       Cd588   2.077       .  S
O580       Cd584   1.979       .  S
O581       Cd584   2.059       .  S
Zn582       O593   1.990       .  S
Zn582       O595   1.922   1_565  S
Zn582       O587   1.904       .  S
O583        C594   1.275       .  A
O583       Cd588   2.159       .  S
Cd584       O586   2.055       .  S
Cd585       O589   2.148       .  S
Cd585       O598   2.061       .  S
O586        C596   1.273       .  A
O587       Cd588   1.998       .  S
Cd588       O590   2.162       .  S
O589        C596   1.293       .  A
C592        C684   1.460       .  S
C596        C623   1.475       .  S
C597        O598   1.273       .  A
C597        C689   1.468       .  S
O599       Zn605   2.054       .  S
O599        C615   1.278       .  A
C600        O616   1.272       .  A
C600        O613   1.289       .  A
O601        C614   1.274       .  A
O601       Cd608   2.102       .  S
O602        C620   1.270       .  A
O602       Cd611   2.048       .  S
O603        C617   1.266       .  A
O603       Cd607   1.989       .  S
O604        C615   1.276       .  A
O604       Cd607   2.084       .  S
Zn605       O616   2.017       .  S
Zn605       O618   1.932       .  S
Zn605       O610   1.915       .  S
O606        C617   1.273       .  A
O606       Cd611   2.102       .  S
Cd607       O609   2.058       .  S
Cd607       O610   1.967       .  S
Cd608       O612   2.140       .  S
Cd608       O621   2.046       .  S
Cd608       O610   1.996       .  S
O609        C619   1.271       .  A
O610       Cd611   1.998       .  S
Cd611       O613   2.135       .  S
O612        C619   1.290       .  A
C614        O618   1.267       .  A
C614       C1376   1.471   1_455  S
C615        C711   1.480       .  S
C617        C637   1.470       .  S
C620        O621   1.269       .  A
C620        C692   1.455       .  S
O622       Zn628   2.009       .  S
O622        C638   1.269       .  A
C623        O639   1.271       .  A
C623        O636   1.292       .  A
O624        C637   1.277       .  A
O624       Cd631   2.129       .  S
O625        C643   1.277       .  A
O625       Cd634   2.090       .  S
O626        C640   1.257       .  A
O626       Cd630   1.977       .  S
O627        C638   1.269       .  A
O627       Cd630   2.050       .  S
Zn628       O639   2.000       .  S
Zn628       O641   1.916       .  S
Zn628       O633   1.896       .  S
O629        C640   1.277       .  A
O629       Cd634   2.131       .  S
Cd630       O632   2.045       .  S
Cd630       O633   1.952       .  S
Cd631       O635   2.162       .  S
Cd631       O644   2.093       .  S
Cd631       O633   1.987       .  S
O632        C642   1.271       .  A
O633       Cd634   1.985       .  S
Cd634       O636   2.148       .  S
O635        C642   1.293       .  A
C637        O641   1.256       .  A
C638        C730   1.453       .  S
C640       C1350   1.471       .  S
C643        O644   1.278       .  A
C643        C735   1.480       .  S
O645       Zn651   2.006       .  S
O645        C661   1.270   1_455  A
C646        O662   1.273       .  A
O647       Cd654   2.137       .  S
O648       Cd657   2.053       .  S
O650       C1029   1.272       .  A
O650       Cd653   2.065       .  S
Zn651       O662   2.004       .  S
Zn651       O664   1.919   1_565  S
Zn651       O656   1.912   1_455  S
O652        C663   1.273       .  A
O652       Cd657   2.137       .  S
Cd653       O655   2.055       .  S
Cd653      O1024   1.963       .  S
Cd654      O1394   2.147   1_455  S
Cd654       O667   2.081       .  S
O656      Cd1021   1.963   1_565  S
O656      Cd1209   1.991       .  S
Cd657      O1395   2.134       .  S
Cd657      O1208   1.991   1_556  S
O658        C665   1.293   1_556  A
O658      Cd1390   2.147       .  S
O659      Cd1393   2.134   1_455  S
C661       O1018   1.272   1_565  A
C661       C1290   1.461       .  S
C666       O1403   1.273       .  A
C666       C1309   1.468       .  S
O667       C1402   1.273   1_455  A
O668       Zn674   2.024       .  S
O668        C684   1.273   1_565  A
C669        O685   1.273       .  A
O670       Cd677   2.136       .  S
O671       Cd680   2.076       .  S
O673       Cd676   2.052       .  S
Zn674       O685   2.005       .  S
Zn674       O687   1.922   1_565  S
Zn674       O679   1.908       .  S
O675        C686   1.274       .  A
O675       Cd680   2.137       .  S
Cd676       O678   2.053       .  S
Cd677       O681   2.140       .  S
Cd677       O690   2.057       .  S
Cd680       O682   2.140       .  S
O681        C688   1.294       .  A
C689        O690   1.270       .  A
O691       Zn697   1.980       .  S
O691        C707   1.268       .  A
C692        O708   1.272       .  A
C692        O705   1.269       .  A
O693       Cd700   2.092       .  S
O694       Cd703   2.030       .  S
O695        C709   1.279       .  A
O695       Cd699   2.096       .  S
O696       Cd699   2.139       .  S
Zn697       O708   2.011       .  S
Zn697       O710   1.931       .  S
Zn697       O702   1.925       .  S
O698       Cd703   1.984       .  S
Cd699       O701   2.086       .  S
Cd700       O704   2.088       .  S
Cd700       O713   2.150       .  S
O701        C711   1.275       .  A
O702       Cd703   1.976       .  S
Cd703       O705   2.045       .  S
O704        C711   1.274       .  A
C706        O710   1.264       .  A
C706       C1281   1.467   1_455  S
C712        O713   1.291       .  A
O714       Zn720   2.012       .  S
O714        C730   1.271       .  A
C715        O731   1.270       .  A
O716       Cd723   2.101       .  S
O717        C735   1.276       .  A
O717       Cd726   2.093       .  S
O718       Cd722   1.977       .  S
O719        C730   1.271       .  A
O719       Cd722   2.054       .  S
Zn720       O731   2.005       .  S
Zn720       O733   1.914       .  S
Zn720       O725   1.921       .  S
O721        C732   1.277       .  A
O721       Cd726   2.101       .  S
Cd722       O724   2.052       .  S
Cd722       O725   1.978       .  S
Cd723       O727   2.139       .  S
Cd723       O736   2.085       .  S
Cd726       O728   2.131       .  S
O727        C734   1.289   1_556  A
C729        O733   1.262       .  A
C729       C1258   1.467       .  S
C735        O736   1.274       .  A
O737       Zn743   1.918       .  S
O737       C1121   1.259       .  A
C738        O754   1.271       .  A
O739        C752   1.292       .  A
O740       C1126   1.262       .  A
O740       Cd749   1.984   1_565  S
O741        C755   1.296       .  A
O742        C753   1.275       .  A
O742       Cd745   2.158       .  S
Zn743       O754   2.017       .  S
Zn743       O756   2.011       .  S
Zn743       O748   1.906       .  S
O744        C755   1.271       .  A
O744       Cd749   2.044       .  S
Cd745       O747   2.083   1_655  S
Cd745      O1116   2.000   1_545  S
Cd746       O750   2.054       .  S
Cd746       O759   2.139       .  S
O748      Cd1113   2.000       .  S
Cd749       O751   2.058       .  S
O750       C1125   1.272       .  A
C752        O756   1.274       .  A
C752        C826   1.476       .  S
C753       O1105   1.259       .  A
C753       C1146   1.487   1_545  S
C755        C784   1.480       .  S
C757       O1118   1.272   1_545  A
C758       O1108   1.262       .  A
C758        O759   1.274       .  A
C758       C1143   1.483       .  S
O760       Zn766   2.013       .  S
O760        C776   1.271       .  A
C761        O777   1.271       .  A
C761        O774   1.295       .  A
C761        C803   1.477       .  S
O762        C775   1.274       .  A
O762       Cd769   2.139       .  S
O763       C1149   1.273       .  A
O763       Cd772   2.077       .  S
O764       C1146   1.259       .  A
O764       Cd768   1.979   1_565  S
O765       C1144   1.270       .  A
O765       Cd768   2.059       .  S
Zn766       O777   1.990       .  S
Zn766       O779   1.922       .  S
Zn766       O771   1.904       .  S
O767        C778   1.275       .  A
O767       Cd772   2.159       .  S
Cd768       O770   2.055       .  S
Cd768      O1139   1.963   1_545  S
Cd769       O773   2.148       .  S
Cd769       O782   2.061       .  S
Cd769      O1139   1.989   1_545  S
O770        C780   1.273       .  A
O771      Cd1136   1.963       .  S
O771      Cd1137   1.989       .  S
O771       Cd772   1.998       .  S
Cd772       O774   2.162       .  S
O773        C780   1.293       .  A
C775       O1147   1.262       .  A
C775       C1126   1.483   1_545  S
C776       O1133   1.270       .  A
C776        C868   1.460       .  S
C778       O1132   1.259       .  A
C778       C1121   1.487       .  S
O779       C1143   1.262       .  A
C780        C807   1.475       .  S
C781       O1131   1.273       .  A
C781        O782   1.273   1_565  A
C781        C873   1.468       .  S
O783       Zn789   2.054       .  S
O783        C799   1.278       .  A
C784        O800   1.272       .  A
C784        O797   1.289       .  A
O785        C798   1.274       .  A
O785       Cd792   2.102       .  S
O786        C804   1.270       .  A
O786       Cd795   2.048       .  S
O787        C801   1.266       .  A
O787       Cd791   1.989       .  S
O788        C799   1.276       .  A
O788       Cd791   2.084       .  S
Zn789       O800   2.017       .  S
Zn789       O802   1.932       .  S
Zn789       O794   1.915       .  S
O790        C801   1.273       .  A
O790       Cd795   2.102       .  S
Cd791       O793   2.058       .  S
Cd791       O794   1.967       .  S
Cd792       O796   2.140       .  S
Cd792       O805   2.046       .  S
Cd792       O794   1.996       .  S
O793        C803   1.271       .  A
O794       Cd795   1.998       .  S
Cd795       O797   2.135       .  S
O796        C803   1.290       .  A
C798        O802   1.267       .  A
C799        C895   1.480       .  S
C801        C821   1.470       .  S
C804        O805   1.269       .  A
C804        C876   1.455       .  S
O806       Zn812   2.009       .  S
O806        C822   1.269       .  A
C807        O823   1.271       .  A
C807        O820   1.292       .  A
O808        C821   1.277       .  A
O808       Cd815   2.129       .  S
O809        C827   1.277       .  A
O809       Cd818   2.090       .  S
O810        C824   1.257       .  A
O810       Cd814   1.977       .  S
O811        C822   1.269       .  A
O811       Cd814   2.050       .  S
Zn812       O823   2.000       .  S
Zn812       O825   1.916       .  S
Zn812       O817   1.896       .  S
O813        C824   1.277       .  A
O813       Cd818   2.131       .  S
Cd814       O816   2.045       .  S
Cd814       O817   1.952       .  S
Cd815       O819   2.162       .  S
Cd815       O828   2.093       .  S
Cd815       O817   1.987       .  S
O816        C826   1.271       .  A
O817       Cd818   1.985       .  S
Cd818       O820   2.148       .  S
O819        C826   1.293       .  A
C821        O825   1.256       .  A
C822        C914   1.453       .  S
C827        O828   1.278       .  A
C827        C919   1.480       .  S
O829       Zn835   2.006       .  S
O829        C845   1.270       .  A
C830        O846   1.273   1_556  A
C830       O1027   1.292       .  A
C830       C1075   1.482       .  S
O831       C1028   1.275       .  A
O831       Cd838   2.137       .  S
O832       C1218   1.271       .  A
O832       Cd841   2.053       .  S
O833       C1031   1.260   1_554  A
O833      Cd1205   1.981       .  S
O834       Cd837   2.065       .  S
Zn835       O846   2.004       .  S
Zn835       O848   1.919       .  S
Zn835       O840   1.912       .  S
O836        C847   1.273       .  A
O836       Cd841   2.137       .  S
Cd837      O1201   1.981   1_545  S
Cd837       O839   2.055       .  S
Cd838       O851   2.081       .  S
Cd838      O1392   2.002   1_545  S
O839       C1033   1.273       .  A
O840      Cd1390   2.002   1_554  S
O842        C849   1.293       .  A
O843       C1014   1.292       .  A
C844       O1015   1.275       .  A
C844       O1216   1.259   1_556  A
C844       C1422   1.479   1_545  S
C847       O1017   1.260       .  A
C847       C1419   1.481       .  S
O848       C1212   1.260   1_554  A
C849       O1023   1.273       .  A
C849       C1083   1.475       .  S
C850       O1200   1.271   1_545  A
O852       Zn858   2.024       .  S
O852        C868   1.273       .  A
C853        O869   1.273       .  A
C853       O1050   1.291   1_554  A
C853       C1102   1.475       .  S
O854       C1051   1.274       .  A
O854       Cd861   2.136       .  S
O855       C1241   1.273       .  A
O855       Cd864   2.076       .  S
O856       C1054   1.260   1_554  A
O856      Cd1228   1.981       .  S
O857       C1236   1.270       .  A
O857       Cd860   2.052       .  S
Zn858       O869   2.005       .  S
Zn858       O871   1.922       .  S
Zn858       O863   1.908       .  S
O859        C870   1.274       .  A
O859       Cd864   2.137       .  S
Cd860      O1224   1.981   1_545  S
Cd860       O862   2.053       .  S
Cd860      O1231   1.970   1_545  S
Cd861       O865   2.140       .  S
Cd861       O874   2.057       .  S
Cd861      O1415   1.989   1_545  S
O862       C1056   1.272   1_554  A
O863      Cd1228   1.970       .  S
O863      Cd1413   1.989   1_554  S
O863      Cd1048   2.001   1_554  S
Cd864       O866   2.140       .  S
Cd864      O1047   2.001       .  S
O865        C872   1.294       .  A
O866       C1037   1.291       .  A
C867       O1038   1.274       .  A
C867       O1239   1.261   1_556  A
C867       C1399   1.481   1_545  S
C868       O1225   1.270       .  A
C870       O1040   1.260       .  A
C870       C1396   1.479       .  S
O871       C1235   1.261   1_554  A
C872       O1046   1.272       .  A
C872       C1080   1.482       .  S
C873       O1223   1.273       .  A
C873        O874   1.270   1_565  A
O875       Zn881   1.980       .  S
O875        C891   1.268       .  A
C876        O892   1.272       .  A
C876        O889   1.269       .  A
O877       C1074   1.282   1_554  A
O877       Cd884   2.092       .  S
O878       C1080   1.267       .  A
O878       Cd887   2.030       .  S
O879        C893   1.279   1_554  A
O879       Cd883   2.096       .  S
O880       C1075   1.288   1_554  A
O880       Cd883   2.139       .  S
Zn881       O892   2.011       .  S
Zn881       O894   1.931       .  S
Zn881       O886   1.925       .  S
O882       C1077   1.263       .  A
O882       Cd887   1.984       .  S
Cd883       O885   2.086       .  S
Cd883      O1070   2.000   1_554  S
Cd884       O888   2.088       .  S
Cd884       O897   2.150       .  S
Cd884      O1070   1.982   1_554  S
O885        C895   1.275       .  A
O886      Cd1067   2.000       .  S
O886      Cd1068   1.982       .  S
O886       Cd887   1.976       .  S
Cd887       O889   2.045       .  S
O888        C895   1.274       .  A
C890       O1061   1.281       .  A
C890        O894   1.264       .  A
C891       O1064   1.288       .  A
C891       C1014   1.482       .  S
C893       O1066   1.263       .  A
C893       C1100   1.473       .  S
C896       O1062   1.267       .  A
C896        O897   1.291   1_556  A
C896       C1056   1.482       .  S
O898       Zn904   2.012       .  S
O898        C914   1.271       .  A
C899        O915   1.270       .  A
C899       O1096   1.287   1_554  A
C899       C1033   1.475       .  S
O900       C1097   1.279       .  A
O900       Cd907   2.101       .  S
O901        C919   1.276       .  A
O901       Cd910   2.093       .  S
O902       C1100   1.263   1_554  A
O902       Cd906   1.977       .  S
O903        C914   1.271       .  A
O903       Cd906   2.054       .  S
Zn904       O915   2.005       .  S
Zn904       O917   1.914       .  S
Zn904       O909   1.921       .  S
O905        C916   1.277       .  A
O905       Cd910   2.101       .  S
Cd906       O908   2.052       .  S
Cd906       O909   1.978       .  S
Cd907       O911   2.139       .  S
Cd907       O920   2.085       .  S
Cd907      O1093   1.991       .  S
O908       C1102   1.270       .  A
O909      Cd1091   1.991   1_554  S
O909      Cd1094   2.003   1_554  S
Cd910       O912   2.131       .  S
Cd910      O1093   2.003       .  S
O911        C918   1.289       .  A
O912       C1083   1.287       .  A
C913       O1084   1.279       .  A
C913        O917   1.262   1_556  A
C916       O1086   1.263       .  A
C916       C1077   1.473       .  S
C918       O1092   1.270       .  A
C918       C1037   1.475       .  S
C919        O920   1.274       .  A
O921       Zn927   1.918       .  S
O921       C1305   1.259       .  A
C922        O938   1.271       .  A
O923        C936   1.292       .  A
O924       C1310   1.262       .  A
O924       Cd933   1.984   1_565  S
O925        C939   1.296       .  A
O926        C937   1.275       .  A
O926       Cd929   2.158       .  S
Zn927       O938   2.017       .  S
Zn927       O940   2.011       .  S
Zn927       O932   1.906       .  S
O928        C939   1.271       .  A
O928       Cd933   2.044       .  S
Cd929       O931   2.083   1_655  S
Cd929      O1300   2.000   1_545  S
Cd930       O934   2.054       .  S
Cd930       O943   2.139       .  S
O932      Cd1297   2.000       .  S
Cd933       O935   2.058       .  S
O934       C1309   1.272       .  A
C936        O940   1.274       .  A
C936       C1010   1.476       .  S
C937       O1289   1.259       .  A
C937       C1330   1.487   1_545  S
C939        C968   1.480       .  S
C941       O1302   1.272   1_545  A
C942       O1292   1.262       .  A
C942        O943   1.274       .  A
C942       C1327   1.483       .  S
O944       Zn950   2.013       .  S
O944        C960   1.271       .  A
C945        O961   1.271       .  A
C945        O958   1.295       .  A
C945        C987   1.477       .  S
O946        C959   1.274       .  A
O946       Cd953   2.139       .  S
O947       C1333   1.273       .  A
O947       Cd956   2.077       .  S
O948       C1330   1.259       .  A
O948       Cd952   1.979   1_565  S
O949       C1328   1.270       .  A
O949       Cd952   2.059       .  S
Zn950       O961   1.990       .  S
Zn950       O963   1.922       .  S
Zn950       O955   1.904       .  S
O951        C962   1.275       .  A
O951       Cd956   2.159       .  S
Cd952       O954   2.055       .  S
Cd952      O1323   1.963   1_545  S
Cd953       O957   2.148       .  S
Cd953       O966   2.061       .  S
Cd953      O1323   1.989   1_545  S
O954        C964   1.273       .  A
O955      Cd1320   1.963       .  S
O955      Cd1321   1.989       .  S
O955       Cd956   1.998       .  S
Cd956       O958   2.162       .  S
O957        C964   1.293       .  A
C959       O1331   1.262       .  A
C959       C1310   1.483   1_545  S
C960       O1317   1.270       .  A
C960       C1052   1.460       .  S
C962       O1316   1.259       .  A
C962       C1305   1.487       .  S
O963       C1327   1.262       .  A
C964        C991   1.475       .  S
C965       O1315   1.273       .  A
C965        O966   1.273   1_565  A
C965       C1057   1.468       .  S
O967       Zn973   2.054       .  S
O967        C983   1.278       .  A
C968        O984   1.272       .  A
C968        O981   1.289       .  A
O969        C982   1.274       .  A
O969       Cd976   2.102       .  S
O970        C988   1.270       .  A
O970       Cd979   2.048       .  S
O971        C985   1.266       .  A
O971       Cd975   1.989       .  S
O972        C983   1.276       .  A
O972       Cd975   2.084       .  S
Zn973       O984   2.017       .  S
Zn973       O986   1.932       .  S
Zn973       O978   1.915       .  S
O974        C985   1.273       .  A
O974       Cd979   2.102       .  S
Cd975       O977   2.058       .  S
Cd975       O978   1.967       .  S
Cd976       O980   2.140       .  S
Cd976       O989   2.046       .  S
Cd976       O978   1.996       .  S
O977        C987   1.271       .  A
O978       Cd979   1.998       .  S
Cd979       O981   2.135       .  S
O980        C987   1.290       .  A
C982        O986   1.267       .  A
C983       C1079   1.480       .  S
C985       C1005   1.470       .  S
C988        O989   1.269       .  A
C988       C1060   1.455       .  S
O990       Zn996   2.009       .  S
O990       C1006   1.269       .  A
C991       O1007   1.271       .  A
C991       O1004   1.292       .  A
O992       C1005   1.277       .  A
O992       Cd999   2.129       .  S
O993       C1011   1.277       .  A
O993      Cd1002   2.090       .  S
O994       C1008   1.257       .  A
O994       Cd998   1.977       .  S
O995       C1006   1.269       .  A
O995       Cd998   2.050       .  S
Zn996      O1007   2.000       .  S
Zn996      O1009   1.916       .  S
Zn996      O1001   1.896       .  S
O997       C1008   1.277       .  A
O997      Cd1002   2.131       .  S
Cd998      O1000   2.045       .  S
Cd998      O1001   1.952       .  S
Cd999      O1003   2.162       .  S
Cd999      O1012   2.093       .  S
Cd999      O1001   1.987       .  S
O1000      C1010   1.271       .  A
O1001     Cd1002   1.985       .  S
Cd1002     O1004   2.148       .  S
O1003      C1010   1.293       .  A
C1005      O1009   1.256       .  A
C1006      C1098   1.453       .  S
C1011      O1012   1.278       .  A
C1011      C1103   1.480       .  S
O1013     Zn1019   2.006       .  S
O1013      C1029   1.270       .  A
C1014      O1030   1.273       .  A
O1015     Cd1022   2.137       .  S
O1016      C1402   1.271       .  A
O1016     Cd1025   2.053       .  S
O1017     Cd1389   1.981       .  S
O1018     Cd1021   2.065       .  S
Zn1019     O1030   2.004       .  S
Zn1019     O1032   1.919       .  S
Zn1019     O1024   1.912       .  S
O1020      C1031   1.273       .  A
O1020     Cd1025   2.137       .  S
Cd1021     O1385   1.981   1_545  S
Cd1021     O1023   2.055       .  S
Cd1022     O1035   2.081       .  S
Cd1022     O1208   2.002   1_546  S
O1024     Cd1206   2.002       .  S
O1026      C1033   1.293   1_556  A
C1028      O1400   1.260       .  A
C1028      C1238   1.479   1_545  S
C1031      C1235   1.481       .  S
O1032      C1396   1.260       .  A
C1034      O1384   1.271   1_545  A
O1036     Zn1042   2.024       .  S
O1036      C1052   1.273       .  A
C1037      O1053   1.273       .  A
O1038     Cd1045   2.136       .  S
O1039      C1425   1.273       .  A
O1039     Cd1048   2.076       .  S
O1040     Cd1412   1.981       .  S
O1041      C1420   1.270       .  A
O1041     Cd1044   2.052       .  S
Zn1042     O1053   2.005       .  S
Zn1042     O1055   1.922       .  S
Zn1042     O1047   1.908       .  S
O1043      C1054   1.274       .  A
O1043     Cd1048   2.137       .  S
Cd1044     O1408   1.981   1_545  S
Cd1044     O1046   2.053       .  S
Cd1044     O1415   1.970   1_545  S
Cd1045     O1049   2.140       .  S
Cd1045     O1058   2.057       .  S
Cd1045     O1231   1.989   1_546  S
O1047     Cd1412   1.970       .  S
O1047     Cd1229   1.989       .  S
Cd1048     O1050   2.140       .  S
O1049      C1056   1.294       .  A
C1051      O1423   1.261       .  A
C1051      C1215   1.481   1_545  S
C1052      O1409   1.270       .  A
C1054      C1212   1.479       .  S
O1055      C1419   1.261       .  A
C1057      O1407   1.273       .  A
C1057      O1058   1.270   1_565  A
O1059     Zn1065   1.980       .  S
O1059      C1075   1.268       .  A
C1060      O1076   1.272       .  A
C1060      O1073   1.269       .  A
O1061     Cd1068   2.092       .  S
O1062     Cd1071   2.030       .  S
O1063      C1077   1.279       .  A
O1063     Cd1067   2.096       .  S
O1064     Cd1067   2.139       .  S
Zn1065     O1076   2.011       .  S
Zn1065     O1078   1.931       .  S
Zn1065     O1070   1.925       .  S
O1066     Cd1071   1.984       .  S
Cd1067     O1069   2.086       .  S
Cd1068     O1072   2.088       .  S
Cd1068     O1081   2.150       .  S
O1069      C1079   1.275       .  A
O1070     Cd1071   1.976       .  S
Cd1071     O1073   2.045       .  S
O1072      C1079   1.274       .  A
C1074      O1078   1.264       .  A
C1080      O1081   1.291       .  A
O1082     Zn1088   2.012       .  S
O1082      C1098   1.271       .  A
C1083      O1099   1.270       .  A
O1084     Cd1091   2.101       .  S
O1085      C1103   1.276       .  A
O1085     Cd1094   2.093       .  S
O1086     Cd1090   1.977       .  S
O1087      C1098   1.271       .  A
O1087     Cd1090   2.054       .  S
Zn1088     O1099   2.005       .  S
Zn1088     O1101   1.914       .  S
Zn1088     O1093   1.921       .  S
O1089      C1100   1.277       .  A
O1089     Cd1094   2.101       .  S
Cd1090     O1092   2.052       .  S
Cd1090     O1093   1.978       .  S
Cd1091     O1095   2.139       .  S
Cd1091     O1104   2.085       .  S
Cd1094     O1096   2.131       .  S
O1095      C1102   1.289   1_556  A
C1097      O1101   1.262       .  A
C1103      O1104   1.274       .  A
O1105     Zn1111   1.918   1_545  S
C1106      O1122   1.271       .  A
O1107      C1120   1.292       .  A
O1108     Cd1117   1.984       .  S
O1109      C1123   1.296       .  A
O1110      C1121   1.275       .  A
O1110     Cd1113   2.158       .  S
Zn1111     O1122   2.017       .  S
Zn1111     O1124   2.011       .  S
Zn1111     O1116   1.906       .  S
O1112      C1123   1.271       .  A
O1112     Cd1117   2.044       .  S
Cd1113     O1115   2.083   1_655  S
Cd1114     O1118   2.054       .  S
Cd1114     O1127   2.139       .  S
Cd1117     O1119   2.058       .  S
C1120      O1124   1.274       .  A
C1120      C1194   1.476       .  S
C1123      C1152   1.480       .  S
C1126      O1127   1.274       .  A
O1128     Zn1134   2.013       .  S
O1128      C1144   1.271   1_565  A
C1129      O1145   1.271       .  A
C1129      O1142   1.295       .  A
C1129      C1171   1.477       .  S
O1130      C1143   1.274       .  A
O1130     Cd1137   2.139       .  S
O1131     Cd1140   2.077       .  S
O1132     Cd1136   1.979       .  S
O1133     Cd1136   2.059       .  S
Zn1134     O1145   1.990       .  S
Zn1134     O1147   1.922   1_565  S
Zn1134     O1139   1.904       .  S
O1135      C1146   1.275       .  A
O1135     Cd1140   2.159       .  S
Cd1136     O1138   2.055       .  S
Cd1137     O1141   2.148       .  S
Cd1137     O1150   2.061       .  S
O1138      C1148   1.273       .  A
O1139     Cd1140   1.998       .  S
Cd1140     O1142   2.162       .  S
O1141      C1148   1.293       .  A
C1144      C1236   1.460       .  S
C1148      C1175   1.475       .  S
C1149      O1150   1.273       .  A
C1149      C1241   1.468       .  S
O1151     Zn1157   2.054       .  S
O1151      C1167   1.278       .  A
C1152      O1168   1.272       .  A
C1152      O1165   1.289       .  A
O1153      C1166   1.274       .  A
O1153     Cd1160   2.102       .  S
O1154      C1172   1.270       .  A
O1154     Cd1163   2.048       .  S
O1155      C1169   1.266       .  A
O1155     Cd1159   1.989       .  S
O1156      C1167   1.276       .  A
O1156     Cd1159   2.084       .  S
Zn1157     O1168   2.017       .  S
Zn1157     O1170   1.932       .  S
Zn1157     O1162   1.915       .  S
O1158      C1169   1.273       .  A
O1158     Cd1163   2.102       .  S
Cd1159     O1161   2.058       .  S
Cd1159     O1162   1.967       .  S
Cd1160     O1164   2.140       .  S
Cd1160     O1173   2.046       .  S
Cd1160     O1162   1.996       .  S
O1161      C1171   1.271       .  A
O1162     Cd1163   1.998       .  S
Cd1163     O1165   2.135       .  S
O1164      C1171   1.290       .  A
C1166      O1170   1.267       .  A
C1167      C1263   1.480       .  S
C1169      C1189   1.470       .  S
C1172      O1173   1.269       .  A
C1172      C1244   1.455       .  S
O1174     Zn1180   2.009       .  S
O1174      C1190   1.269       .  A
C1175      O1191   1.271       .  A
C1175      O1188   1.292       .  A
O1176      C1189   1.277       .  A
O1176     Cd1183   2.129       .  S
O1177      C1195   1.277       .  A
O1177     Cd1186   2.090       .  S
O1178      C1192   1.257       .  A
O1178     Cd1182   1.977       .  S
O1179      C1190   1.269       .  A
O1179     Cd1182   2.050       .  S
Zn1180     O1191   2.000       .  S
Zn1180     O1193   1.916       .  S
Zn1180     O1185   1.896       .  S
O1181      C1192   1.277       .  A
O1181     Cd1186   2.131       .  S
Cd1182     O1184   2.045       .  S
Cd1182     O1185   1.952       .  S
Cd1183     O1187   2.162       .  S
Cd1183     O1196   2.093       .  S
Cd1183     O1185   1.987       .  S
O1184      C1194   1.271       .  A
O1185     Cd1186   1.985       .  S
Cd1186     O1188   2.148       .  S
O1187      C1194   1.293       .  A
C1189      O1193   1.256       .  A
C1190      C1282   1.453       .  S
C1195      O1196   1.278       .  A
C1195      C1287   1.480       .  S
O1197     Zn1203   2.006       .  S
O1197      C1213   1.270       .  A
C1198      O1214   1.273   1_556  A
C1198      O1395   1.292       .  A
C1198      C1443   1.482       .  S
O1199      C1396   1.275       .  A
O1199     Cd1206   2.137       .  S
O1200     Cd1209   2.053       .  S
O1201      C1399   1.260   1_554  A
O1202     Cd1205   2.065       .  S
Zn1203     O1214   2.004       .  S
Zn1203     O1216   1.919   1_565  S
Zn1203     O1208   1.912       .  S
O1204      C1215   1.273       .  A
O1204     Cd1209   2.137       .  S
Cd1205     O1207   2.055       .  S
Cd1206     O1219   2.081       .  S
O1207      C1401   1.273       .  A
O1210      C1217   1.293       .  A
O1211      C1382   1.292       .  A
C1212      O1383   1.275       .  A
C1215      O1385   1.260       .  A
C1217      O1391   1.273       .  A
C1217      C1451   1.475       .  S
O1220     Zn1226   2.024       .  S
O1220      C1236   1.273   1_565  A
C1221      O1237   1.273       .  A
C1221      O1418   1.291   1_554  A
C1221      C1470   1.475       .  S
O1222      C1419   1.274       .  A
O1222     Cd1229   2.136       .  S
O1223     Cd1232   2.076       .  S
O1224      C1422   1.260   1_554  A
O1225     Cd1228   2.052       .  S
Zn1226     O1237   2.005       .  S
Zn1226     O1239   1.922   1_565  S
Zn1226     O1231   1.908       .  S
O1227      C1238   1.275       .  A
O1227     Cd1232   2.137       .  S
Cd1228     O1230   2.053       .  S
Cd1229     O1233   2.140       .  S
Cd1229     O1242   2.057       .  S
O1230      C1424   1.272   1_554  A
O1231     Cd1416   2.001   1_554  S
Cd1232     O1234   2.140       .  S
Cd1232     O1415   2.001       .  S
O1233      C1240   1.294       .  A
O1234      C1405   1.291       .  A
C1235      O1406   1.274       .  A
C1238      O1408   1.260       .  A
C1240      O1414   1.272       .  A
C1240      C1448   1.482       .  S
C1241      O1242   1.270       .  A
O1243     Zn1249   1.980       .  S
O1243      C1259   1.268       .  A
C1244      O1260   1.272       .  A
C1244      O1257   1.269       .  A
O1245      C1442   1.282   1_554  A
O1245     Cd1252   2.092       .  S
O1246      C1448   1.267       .  A
O1246     Cd1255   2.030       .  S
O1247      C1261   1.279   1_554  A
O1247     Cd1251   2.096       .  S
O1248      C1443   1.288   1_554  A
O1248     Cd1251   2.139       .  S
Zn1249     O1260   2.011       .  S
Zn1249     O1262   1.931       .  S
Zn1249     O1254   1.925       .  S
O1250      C1445   1.263       .  A
O1250     Cd1255   1.984       .  S
Cd1251     O1253   2.086       .  S
Cd1251     O1438   2.000   1_554  S
Cd1252     O1256   2.088       .  S
Cd1252     O1265   2.150       .  S
Cd1252     O1438   1.982   1_554  S
O1253      C1263   1.275       .  A
O1254     Cd1435   2.000       .  S
O1254     Cd1436   1.982       .  S
O1254     Cd1255   1.976       .  S
Cd1255     O1257   2.045       .  S
O1256      C1263   1.274       .  A
C1258      O1429   1.281       .  A
C1258      O1262   1.264       .  A
C1259      O1432   1.288       .  A
C1259      C1382   1.482       .  S
C1261      O1434   1.263       .  A
C1261      C1468   1.473       .  S
C1264      O1430   1.267       .  A
C1264      O1265   1.291   1_556  A
C1264      C1424   1.482       .  S
O1266     Zn1272   2.012       .  S
O1266      C1282   1.271       .  A
C1267      O1283   1.270       .  A
C1267      O1464   1.287   1_554  A
C1267      C1401   1.475       .  S
O1268      C1465   1.279       .  A
O1268     Cd1275   2.101       .  S
O1269      C1287   1.276       .  A
O1269     Cd1278   2.093       .  S
O1270      C1468   1.263   1_554  A
O1270     Cd1274   1.977       .  S
O1271      C1282   1.271       .  A
O1271     Cd1274   2.054       .  S
Zn1272     O1283   2.005       .  S
Zn1272     O1285   1.914       .  S
Zn1272     O1277   1.921       .  S
O1273      C1284   1.277       .  A
O1273     Cd1278   2.101       .  S
Cd1274     O1276   2.052       .  S
Cd1274     O1277   1.978       .  S
Cd1275     O1279   2.139       .  S
Cd1275     O1288   2.085       .  S
Cd1275     O1461   1.991       .  S
O1276      C1470   1.270       .  A
O1277     Cd1459   1.991   1_554  S
O1277     Cd1462   2.003   1_554  S
Cd1278     O1280   2.131       .  S
Cd1278     O1461   2.003       .  S
O1279      C1286   1.289       .  A
O1280      C1451   1.287       .  A
C1281      O1452   1.279       .  A
C1281      O1285   1.262   1_556  A
C1284      O1454   1.263       .  A
C1284      C1445   1.473       .  S
C1286      O1460   1.270       .  A
C1286      C1405   1.475       .  S
C1287      O1288   1.274       .  A
O1289     Zn1295   1.918   1_545  S
C1290      O1306   1.271       .  A
O1291      C1304   1.292       .  A
O1292     Cd1301   1.984       .  S
O1293      C1307   1.296       .  A
O1294      C1305   1.275       .  A
O1294     Cd1297   2.158       .  S
Zn1295     O1306   2.017       .  S
Zn1295     O1308   2.011       .  S
Zn1295     O1300   1.906       .  S
O1296      C1307   1.271       .  A
O1296     Cd1301   2.044       .  S
Cd1297     O1299   2.083   1_655  S
Cd1298     O1302   2.054       .  S
Cd1298     O1311   2.139       .  S
Cd1301     O1303   2.058       .  S
C1304      O1308   1.274       .  A
C1304      C1378   1.476       .  S
C1307      C1336   1.480       .  S
C1310      O1311   1.274       .  A
O1312     Zn1318   2.013       .  S
O1312      C1328   1.271   1_565  A
C1313      O1329   1.271       .  A
C1313      O1326   1.295       .  A
C1313      C1355   1.477       .  S
O1314      C1327   1.274       .  A
O1314     Cd1321   2.139       .  S
O1315     Cd1324   2.077       .  S
O1316     Cd1320   1.979       .  S
O1317     Cd1320   2.059       .  S
Zn1318     O1329   1.990       .  S
Zn1318     O1331   1.922   1_565  S
Zn1318     O1323   1.904       .  S
O1319      C1330   1.275       .  A
O1319     Cd1324   2.159       .  S
Cd1320     O1322   2.055       .  S
Cd1321     O1325   2.148       .  S
Cd1321     O1334   2.061       .  S
O1322      C1332   1.273       .  A
O1323     Cd1324   1.998       .  S
Cd1324     O1326   2.162       .  S
O1325      C1332   1.293       .  A
C1328      C1420   1.460       .  S
C1332      C1359   1.475       .  S
C1333      O1334   1.273       .  A
C1333      C1425   1.468       .  S
O1335     Zn1341   2.054       .  S
O1335      C1351   1.278       .  A
C1336      O1352   1.272       .  A
C1336      O1349   1.289       .  A
O1337      C1350   1.274       .  A
O1337     Cd1344   2.102       .  S
O1338      C1356   1.270       .  A
O1338     Cd1347   2.048       .  S
O1339      C1353   1.266       .  A
O1339     Cd1343   1.989       .  S
O1340      C1351   1.276       .  A
O1340     Cd1343   2.084       .  S
Zn1341     O1352   2.017       .  S
Zn1341     O1354   1.932       .  S
Zn1341     O1346   1.915       .  S
O1342      C1353   1.273       .  A
O1342     Cd1347   2.102       .  S
Cd1343     O1345   2.058       .  S
Cd1343     O1346   1.967       .  S
Cd1344     O1348   2.140       .  S
Cd1344     O1357   2.046       .  S
Cd1344     O1346   1.996       .  S
O1345      C1355   1.271       .  A
O1346     Cd1347   1.998       .  S
Cd1347     O1349   2.135       .  S
O1348      C1355   1.290       .  A
C1350      O1354   1.267       .  A
C1351      C1447   1.480       .  S
C1353      C1373   1.470       .  S
C1356      O1357   1.269       .  A
C1356      C1428   1.455       .  S
O1358     Zn1364   2.009       .  S
O1358      C1374   1.269       .  A
C1359      O1375   1.271       .  A
C1359      O1372   1.292       .  A
O1360      C1373   1.277       .  A
O1360     Cd1367   2.129       .  S
O1361      C1379   1.277       .  A
O1361     Cd1370   2.090       .  S
O1362      C1376   1.257       .  A
O1362     Cd1366   1.977       .  S
O1363      C1374   1.269       .  A
O1363     Cd1366   2.050       .  S
Zn1364     O1375   2.000       .  S
Zn1364     O1377   1.916       .  S
Zn1364     O1369   1.896       .  S
O1365      C1376   1.277       .  A
O1365     Cd1370   2.131       .  S
Cd1366     O1368   2.045       .  S
Cd1366     O1369   1.952       .  S
Cd1367     O1371   2.162       .  S
Cd1367     O1380   2.093       .  S
Cd1367     O1369   1.987       .  S
O1368      C1378   1.271       .  A
O1369     Cd1370   1.985       .  S
Cd1370     O1372   2.148       .  S
O1371      C1378   1.293       .  A
C1373      O1377   1.256       .  A
C1374      C1466   1.453       .  S
C1379      O1380   1.278       .  A
C1379      C1471   1.480       .  S
O1381     Zn1387   2.006       .  S
O1381      C1397   1.270       .  A
C1382      O1398   1.273       .  A
O1383     Cd1390   2.137       .  S
O1384     Cd1393   2.053       .  S
O1386     Cd1389   2.065       .  S
Zn1387     O1398   2.004       .  S
Zn1387     O1400   1.919   1_565  S
Zn1387     O1392   1.912       .  S
O1388      C1399   1.273       .  A
O1388     Cd1393   2.137       .  S
Cd1389     O1391   2.055       .  S
Cd1390     O1403   2.081       .  S
O1394      C1401   1.293   1_556  A
O1404     Zn1410   2.024       .  S
O1404      C1420   1.273   1_565  A
C1405      O1421   1.273       .  A
O1406     Cd1413   2.136       .  S
O1407     Cd1416   2.076       .  S
O1409     Cd1412   2.052       .  S
Zn1410     O1421   2.005       .  S
Zn1410     O1423   1.922   1_565  S
Zn1410     O1415   1.908       .  S
O1411      C1422   1.274       .  A
O1411     Cd1416   2.137       .  S
Cd1412     O1414   2.053       .  S
Cd1413     O1417   2.140       .  S
Cd1413     O1426   2.057       .  S
Cd1416     O1418   2.140       .  S
O1417      C1424   1.294       .  A
C1425      O1426   1.270       .  A
O1427     Zn1433   1.980       .  S
O1427      C1443   1.268       .  A
C1428      O1444   1.272       .  A
C1428      O1441   1.269       .  A
O1429     Cd1436   2.092       .  S
O1430     Cd1439   2.030       .  S
O1431      C1445   1.279       .  A
O1431     Cd1435   2.096       .  S
O1432     Cd1435   2.139       .  S
Zn1433     O1444   2.011       .  S
Zn1433     O1446   1.931       .  S
Zn1433     O1438   1.925       .  S
O1434     Cd1439   1.984       .  S
Cd1435     O1437   2.086       .  S
Cd1436     O1440   2.088       .  S
Cd1436     O1449   2.150       .  S
O1437      C1447   1.275       .  A
O1438     Cd1439   1.976       .  S
Cd1439     O1441   2.045       .  S
O1440      C1447   1.274       .  A
C1442      O1446   1.264       .  A
C1448      O1449   1.291       .  A
O1450     Zn1456   2.012       .  S
O1450      C1466   1.271       .  A
C1451      O1467   1.270       .  A
O1452     Cd1459   2.101       .  S
O1453      C1471   1.276       .  A
O1453     Cd1462   2.093       .  S
O1454     Cd1458   1.977       .  S
O1455      C1466   1.271       .  A
O1455     Cd1458   2.054       .  S
Zn1456     O1467   2.005       .  S
Zn1456     O1469   1.914       .  S
Zn1456     O1461   1.921       .  S
O1457      C1468   1.277       .  A
O1457     Cd1462   2.101       .  S
Cd1458     O1460   2.052       .  S
Cd1458     O1461   1.978       .  S
Cd1459     O1463   2.139       .  S
Cd1459     O1472   2.085       .  S
Cd1462     O1464   2.131       .  S
O1463      C1470   1.289   1_556  A
C1465      O1469   1.262       .  A
C1471      O1472   1.274       .  A
