geometry optimzed in LAMMPS
_audit_creation_date              2020-12-01 
_audit_creation_method            'lammps2cif' 
_symmetry_space_group_name_H-M    'P1' 
_symmetry_Int_Tables_number       1 
_symmetry_cell_setting            triclinic 
loop_ 
_symmetry_equiv_pos_as_xyz 
  x,y,z 
_cell_length_a                    30.3435204 
_cell_length_b                    30.43290675011558 
_cell_length_c                    33.08425030247171 
_cell_angle_alpha                 89.96584326353543 
_cell_angle_beta                  90.15691222267914 
_cell_angle_gamma                 120.952376463054 
loop_ 
_atom_site_label 
_atom_site_type_symbol 
_atom_site_fract_x 
_atom_site_fract_y 
_atom_site_fract_z 
_atom_site_charge 
O1          O  0.27815888  0.58524115  0.29631436    -0.81600
C2          C  0.36034151  0.76012499  0.19478207     0.97700
O3          O  0.31983748  0.74188057  0.21565932    -0.70700
O4          O  0.25540120  0.64512264  0.20087838    -0.74300
Al5        Al  0.28428159  0.68208127  0.24901949     1.49000
C6          C  0.24285790  0.59950509  0.19365657     0.93000
O7          O  0.35799384  0.61211041  0.20227650    -0.80500
O8          O  0.41427638  0.69621965  0.29909348    -0.74100
Al9        Al  0.31921351  0.60287446  0.24941618     1.90100
O10         O  0.42612280  0.68520088  0.21855750    -0.73200
O11         O  0.38900786  0.76437791  0.28255059    -0.73000
O12         O  0.39294764  0.74719486  0.20178584    -0.78700
O13         O  0.30722352  0.72085364  0.29736336    -0.76900
O14         O  0.33436498  0.66781942  0.24972051    -1.13000
O15         O  0.23766119  0.62551108  0.28184480    -0.72200
C16         C  0.24160406  0.59271657  0.30238397     0.98500
C17         C  0.40454170  0.64546704  0.19692273     0.94900
Al18       Al  0.39991301  0.71884193  0.25043862     1.55600
O19         O  0.26096676  0.57770569  0.21451958    -0.76800
C20         C  0.35175274  0.75841888  0.30365947     0.99100
C21         C  0.40520406  0.65166502  0.30622279     0.94000
O22         O  0.37413506  0.61414065  0.28455944    -0.82100
O23         O  0.58235148  0.28043550  0.20243176    -0.81600
C24         C  0.75595848  0.35996924  0.30511471     0.97700
O25         O  0.73669945  0.31929688  0.28462265    -0.70700
O26         O  0.63976822  0.25648001  0.29919190    -0.74300
Al27       Al  0.67751475  0.28471528  0.25117642     1.49000
C28         C  0.59396826  0.24439366  0.30559693     0.93000
O29         O  0.60821944  0.35955964  0.29711707    -0.80500
O30         O  0.69271468  0.41474007  0.20041026    -0.74100
Al31       Al  0.59914192  0.32089827  0.24970195     1.90100
O32         O  0.68216911  0.42682525  0.28134803    -0.73200
O33         O  0.76040513  0.38875486  0.21723758    -0.73000
O34         O  0.74438995  0.39350913  0.29794352    -0.78700
O35         O  0.71724659  0.30695530  0.20307178    -0.76900
O36         O  0.66404477  0.33529121  0.25004619    -1.13000
O37         O  0.62107887  0.23885771  0.21827119    -0.72200
C38         C  0.58923216  0.24343158  0.19691903     0.98500
C39         C  0.64224663  0.40582834  0.30283813     0.94900
Al40       Al  0.71549481  0.40037358  0.24930063     1.55600
O41         O  0.57285360  0.26253152  0.28398053    -0.76800
C42         C  0.75471490  0.35144803  0.19650233     0.99100
C43         C  0.64822688  0.40641495  0.19328791     0.94000
O44         O  0.61079938  0.37595073  0.21511093    -0.82100
N45         N  0.91745914  0.38844236  0.50002078    -0.36400
N46         N  0.99680840  0.43033986  0.43775261    -0.57000
N47         N  0.07606741  0.47240491  0.49852845    -0.36400
N48         N  0.99726967  0.43246553  0.06083399    -0.57000
C49         C  0.89001153  0.38713948  0.46730635     0.27200
C50         C  0.88992478  0.38583474  0.03302732     0.27200
C51         C  0.10407553  0.49646884  0.46532007     0.27200
C52         C  0.10437439  0.49879439  0.03089474     0.27200
C53         C  0.95483737  0.40443646  0.41415487     0.35800
C54         C  0.03780671  0.44615489  0.41333983     0.35800
C55         C  0.95637291  0.40606851  0.08536764     0.35800
C56         C  0.03939644  0.45117695  0.08455953     0.35800
C57         C  0.84404357  0.38232282  0.47960040    -0.21700
C58         C  0.84399765  0.38150480  0.02114938    -0.21700
C59         C  0.15112536  0.53801645  0.47685478    -0.21700
C60         C  0.15136051  0.53939772  0.01821610    -0.21700
C61         C  0.96912063  0.40300086  0.37462644    -0.22800
C62         C  0.02184141  0.42949954  0.37411070    -0.22800
C63         C  0.97258130  0.40747610  0.12480719    -0.22800
C64         C  0.02526576  0.43624793  0.12431845    -0.22800
C65         C  0.90460398  0.38907124  0.42657018    -0.18100
C66         C  0.90498765  0.38722813  0.07361840    -0.18100
C67         C  0.08984844  0.48636909  0.07170734    -0.18100
C68         C  0.08884401  0.48131633  0.42490150    -0.18100
H69         H  0.81382984  0.38019081  0.46069945     0.14800
H70         H  0.81382271  0.37871902  0.04032892     0.14800
H71         H  0.18217403  0.56454268  0.45745630     0.14800
H72         H  0.18261019  0.56735343  0.03687483     0.14800
H73         H  0.94418287  0.38656891  0.34859900     0.13100
H74         H  0.04565383  0.43761699  0.34760457     0.13100
H75         H  0.94886715  0.39133119  0.15138780     0.13100
H76         H  0.05022898  0.44652646  0.15044465     0.13100
H77         H  0.95108177  0.38719995  0.49981607     0.26300
H78         H  0.04187327  0.43728576  0.49919842     0.26300
N79         N  0.60525608  0.53053449  0.49816858    -0.36400
N80         N  0.56624167  0.57069127  0.43685547    -0.57000
N81         N  0.52524080  0.60442681  0.50124956    -0.36400
N82         N  0.56916753  0.56918830  0.06248454    -0.57000
C83         C  0.62501588  0.52206943  0.46456643     0.27200
C84         C  0.62677999  0.52129817  0.03035158     0.27200
C85         C  0.51627265  0.62596097  0.46898686     0.27200
C86         C  0.51756352  0.62488649  0.03477274     0.27200
C87         C  0.57798073  0.54225507  0.41285273     0.35800
C88         C  0.53605410  0.58211643  0.41460507     0.35800
C89         C  0.58313756  0.54128312  0.08508130     0.35800
C90         C  0.54096444  0.58099246  0.08679010     0.35800
C91         C  0.65999596  0.50772751  0.47548999    -0.21700
C92         C  0.66125206  0.50740296  0.01696967    -0.21700
C93         C  0.50279786  0.66077866  0.48205681    -0.21700
C94         C  0.50374063  0.66016619  0.02369785    -0.21700
C95         C  0.55659501  0.53706695  0.37479255    -0.22800
C96         C  0.53012189  0.56243622  0.37587286    -0.21800
C97         C  0.56561354  0.53733587  0.12436662    -0.22800
C98         C  0.53862128  0.56213316  0.12536554    -0.22800
C99         C  0.60786988  0.52096606  0.42463345    -0.18100
C100        C  0.61187515  0.51958863  0.07106661    -0.18100
C101        C  0.51752209  0.60885522  0.07483029    -0.18100
C102        C  0.51464775  0.61104084  0.42839446    -0.18100
H103        H  0.68120842  0.49702408  0.45559538     0.14800
H104        H  0.68352239  0.49610818  0.03506321     0.14800
H105        H  0.49200692  0.68318183  0.46363991     0.14800
H106        H  0.49386441  0.68209286  0.04350731     0.14800
H107        H  0.55930877  0.51668381  0.34903303     0.13100
H108        H  0.50856581  0.56557216  0.35107027     0.13100
H109        H  0.57121504  0.51820684  0.14970310     0.13100
H110        H  0.51915638  0.56542069  0.15151012     0.13100
H111        H  0.57330395  0.53437024  0.49899702     0.26300
H112        H  0.52846591  0.57213165  0.50054773     0.26300
N113        N  0.46220159  0.08049853  0.00114496    -0.36400
N114        N  0.42956054  0.00263408  0.43847979    -0.57000
N115        N  0.39512813  0.92328679  0.99856773    -0.36400
N116        N  0.42817722  0.00025288  0.06117111    -0.57000
C117        C  0.48886589  0.10919088  0.46892883     0.27200
C118        C  0.48638096  0.10805344  0.03455413     0.27200
C119        C  0.39507539  0.89765084  0.46510282     0.27200
C120        C  0.39667755  0.89684822  0.03084618     0.27200
C121        C  0.44322767  0.04413801  0.41531217     0.35800
C122        C  0.40524264  0.96156791  0.41383710     0.35800
C123        C  0.43948605  0.04008432  0.08573545     0.35800
C124        C  0.40557469  0.95786748  0.08448784     0.35800
C125        C  0.52945571  0.15595743  0.48195192    -0.21700
C126        C  0.52792574  0.15522309  0.02340789    -0.21700
C127        C  0.39599546  0.85418695  0.47622576    -0.21700
C128        C  0.39692380  0.85366174  0.01783270    -0.21700
C129        C  0.42696451  0.02947504  0.37581735    -0.22800
C130        C  0.40235573  0.97696139  0.37496024    -0.22800
C131        C  0.42300667  0.02283590  0.12473266    -0.22800
C132        C  0.40175629  0.97067740  0.12398900    -0.22800
C133        C  0.47691672  0.09480762  0.42804919    -0.18100
C134        C  0.47199024  0.09186565  0.07485820    -0.18100
C135        C  0.39513175  0.90927253  0.07168486    -0.18100
C136        C  0.39254554  0.91164492  0.42487405    -0.18100
H137        H  0.55757762  0.18723905  0.46355234     0.14800
H138        H  0.55502678  0.18570242  0.04302971     0.14800
H139        H  0.39609643  0.82585864  0.45652432     0.14800
H140        H  0.39744214  0.82452956  0.03623802     0.14800
H141        H  0.43397754  0.05415517  0.35005194     0.13100
H142        H  0.38663869  0.95310037  0.34836130     0.13100
H143        H  0.42827773  0.04574304  0.15134042     0.13100
H144        H  0.38734343  0.94546232  0.14990427     0.13100
H145        H  0.42743782  0.04573841  0.00032967     0.26300
H146        H  0.38892388  0.95386988  0.99928266     0.26300
C147        C  0.55905613  0.20433533  0.16586008    -0.05300
C148        C  0.52403466  0.20967259  0.14147683    -0.32700
C149        C  0.49417310  0.17255672  0.11258669     0.36500
C150        C  0.49948893  0.12968359  0.10744977    -0.05600
C151        C  0.53437254  0.12426142  0.13154400    -0.32600
C152        C  0.56398209  0.16094428  0.16056699     0.36500
H153        H  0.51959586  0.24259619  0.14480102     0.16800
O154        O  0.46069546  0.17892494  0.08892509    -0.60100
H155        H  0.53913768  0.09161272  0.12738872     0.16800
O156        O  0.59708291  0.15344644  0.18378687    -0.60200
H157        H  0.62901391  0.16748314  0.16762963     0.43800
H158        H  0.42849070  0.16412843  0.10482863     0.43800
C159        C  0.50672496  0.13344582  0.39684449    -0.05300
C160        C  0.49017223  0.16585791  0.38263754    -0.32700
C161        C  0.51842040  0.20263869  0.35317461     0.36500
C162        C  0.56417085  0.20742177  0.33784800    -0.05600
C163        C  0.58086955  0.17522597  0.35287184    -0.32600
C164        C  0.55217515  0.13809357  0.38184149     0.36500
H165        H  0.45520636  0.16241572  0.39432842     0.16800
O166        O  0.50080132  0.23345491  0.33958321    -0.60100
H167        H  0.61571916  0.17806155  0.34156320     0.16800
O168        O  0.56901897  0.10675910  0.39574372    -0.60200
H169        H  0.55308351  0.07659320  0.37746940     0.43800
H170        H  0.51816258  0.26454275  0.35681737     0.43800
C171        C  0.86662681  0.38097880  0.39505568    -0.05300
C172        C  0.87018955  0.42371026  0.37581938    -0.32700
C173        C  0.83383689  0.41758009  0.34693836     0.36500
C174        C  0.79321490  0.36806220  0.33706977    -0.05600
C175        C  0.78981799  0.32531107  0.35651043    -0.32600
C176        C  0.82607178  0.33159055  0.38557510     0.36500
H177        H  0.90132848  0.46190039  0.38332035     0.16800
O178        O  0.83905157  0.46010354  0.32799805    -0.60100
H179        H  0.75890149  0.28693629  0.34920250     0.16800
O180        O  0.82227838  0.28937248  0.40396607    -0.60200
H181        H  0.80191718  0.28416408  0.42880261     0.43800
H182        H  0.85754819  0.46315561  0.30251241     0.43800
C183        C  0.86670208  0.37680749  0.10561569    -0.05300
C184        C  0.86989626  0.41826329  0.12651275    -0.32700
C185        C  0.83367696  0.41062467  0.15581409     0.36500
C186        C  0.79305487  0.36047692  0.16484644    -0.05600
C187        C  0.78978172  0.31889986  0.14345845    -0.32600
C188        C  0.82604426  0.32690277  0.11375937     0.36500
H189        H  0.90050778  0.45693404  0.11970017     0.16800
O190        O  0.83786775  0.45278697  0.17460794    -0.60100
H191        H  0.75904881  0.28010936  0.14965138     0.16800
O192        O  0.82188165  0.28581968  0.09318558    -0.60200
H193        H  0.79935196  0.28078041  0.06971013     0.43800
H194        H  0.86216963  0.46044650  0.19732951     0.43800
C195        C  0.62309441  0.48955698  0.10023724    -0.05300
C196        C  0.58282105  0.44143763  0.11247588    -0.32700
C197        C  0.59062333  0.41357742  0.14223502     0.36500
C198        C  0.63971573  0.43350461  0.15988975    -0.05600
C199        C  0.68051629  0.48084210  0.14634596    -0.32600
C200        C  0.67225650  0.50919197  0.11715430     0.36500
H201        H  0.54481441  0.42605725  0.09952354     0.16800
O202        O  0.54977621  0.36728154  0.15415166    -0.60100
H203        H  0.71849902  0.49679728  0.15944187     0.16800
O204        O  0.71222756  0.55616236  0.10557069    -0.60200
H205        H  0.71155598  0.58097957  0.12460861     0.43800
H206        H  0.55079871  0.34151309  0.13647673     0.43800
C207        C  0.63508128  0.43597193  0.33455337    -0.05300
C208        C  0.59536919  0.41061439  0.36290713    -0.32700
C209        C  0.58693059  0.43811852  0.39255424     0.36500
C210        C  0.61809163  0.49175058  0.39413055    -0.05600
C211        C  0.65802358  0.51737719  0.36632671    -0.32600
C212        C  0.66704070  0.48993662  0.33688097     0.36500
H213        H  0.57067803  0.36930225  0.36215615     0.16800
O214        O  0.54815911  0.41230959  0.42002610    -0.60100
H215        H  0.68212874  0.55874560  0.36745389     0.16800
O216        O  0.70626469  0.51651749  0.30992022    -0.60200
H217        H  0.73725310  0.52012264  0.32329743     0.43800
H218        H  0.51819002  0.41285602  0.40859085     0.43800
C219        C  0.20510535  0.57082688  0.16142288    -0.05300
C220        C  0.17198339  0.58754663  0.14851600    -0.32700
C221        C  0.13424092  0.56006644  0.11946091     0.36500
C222        C  0.12915913  0.51522735  0.10290951    -0.05600
C223        C  0.16251329  0.49872988  0.11498917    -0.32600
C224        C  0.20046348  0.52622542  0.14404190     0.36500
H225        H  0.17476049  0.62160288  0.16141653     0.16800
O226        O  0.10204945  0.57690482  0.10766929    -0.60100
H227        H  0.15907530  0.46452456  0.10177465     0.16800
O228        O  0.23274996  0.50919843  0.15506400    -0.60200
H229        H  0.26253390  0.52683659  0.13659108     0.43800
H230        H  0.11887478  0.59904647  0.08384361     0.43800
C231        C  0.12710800  0.50866876  0.39270454    -0.05300
C232        C  0.15829052  0.49022211  0.37923313    -0.32700
C233        C  0.19585670  0.51697956  0.34973940     0.36500
C234        C  0.20257389  0.56305958  0.33360864    -0.05600
C235        C  0.17065600  0.58089087  0.34714350    -0.32600
C236        C  0.13297988  0.55386894  0.37621051     0.36500
H237        H  0.15339641  0.45500327  0.39159122     0.16800
O238        O  0.22422031  0.49671834  0.33577563    -0.60100
H239        H  0.17497774  0.61610275  0.33531292     0.16800
O240        O  0.10268695  0.57242908  0.38906037    -0.60200
H241        H  0.07368691  0.55869317  0.36955615     0.43800
H242        H  0.24765966  0.50077542  0.35825199     0.43800
C243        C  0.43419001  0.63767036  0.16537467    -0.05300
C244        C  0.40796930  0.60339084  0.13356480    -0.32700
C245        C  0.43492474  0.59447133  0.10372478     0.36500
C246        C  0.48886309  0.61973782  0.10549872    -0.05600
C247        C  0.51529691  0.65443098  0.13685954    -0.32600
C248        C  0.48840057  0.66327057  0.16686419     0.36500
H249        H  0.36641138  0.58334764  0.13178475     0.16800
O250        O  0.40825670  0.55973990  0.07359469    -0.60100
H251        H  0.55684258  0.67395555  0.13840004     0.16800
O252        O  0.51549201  0.69610844  0.19791490    -0.60200
H253        H  0.51707993  0.67415454  0.21934065     0.43800
H254        H  0.39967673  0.57854918  0.05362181     0.43800
C255        C  0.43197781  0.64309013  0.33962916    -0.05300
C256        C  0.48340790  0.67992256  0.34828519    -0.32700
C257        C  0.51068587  0.67025635  0.37758657     0.36500
C258        C  0.48615666  0.62381562  0.39901262    -0.05600
C259        C  0.43425712  0.58799064  0.39164907    -0.32600
C260        C  0.40710345  0.59733528  0.36217624     0.36500
H261        H  0.50292042  0.71542621  0.33137258     0.16800
O262        O  0.56121475  0.70616031  0.38502414    -0.60100
H263        H  0.41509459  0.55234930  0.40841359     0.16800
O264        O  0.35632154  0.56147781  0.35561623    -0.60200
H265        H  0.33688522  0.57517327  0.36943056     0.43800
H266        H  0.58123777  0.69541876  0.36839280     0.43800
C267        C  0.38588354  0.87057485  0.10283629    -0.05300
C268        C  0.42688872  0.86572831  0.11650706    -0.32700
C269        C  0.41909936  0.82931720  0.14582338     0.36500
C270        C  0.36966766  0.79760983  0.16243544    -0.05600
C271        C  0.32868089  0.80269918  0.14840039    -0.32600
C272        C  0.33657026  0.83880793  0.11877075     0.36500
H273        H  0.46504660  0.89028808  0.10429246     0.16800
O274        O  0.46044785  0.82640213  0.15891837    -0.60100
H275        H  0.29031953  0.77859259  0.16036679     0.16800
O276        O  0.29587107  0.84257950  0.10525446    -0.60200
H277        H  0.29418853  0.86726335  0.12380699     0.43800
H278        H  0.46304442  0.80280665  0.13972556     0.43800
C279        C  0.36105318  0.79694688  0.33508289    -0.05300
C280        C  0.40983467  0.84175711  0.33756201    -0.32700
C281        C  0.42009369  0.87964135  0.36609825     0.36500
C282        C  0.38128147  0.87338238  0.39268670    -0.05600
C283        C  0.33269493  0.82865417  0.39075267    -0.32600
C284        C  0.32247063  0.79031764  0.36249742     0.36500
H285        H  0.44044572  0.84763046  0.31736847     0.16800
O286        O  0.46875225  0.92172588  0.36899838    -0.60100
H287        H  0.30294048  0.82314269  0.41177037     0.16800
O288        O  0.27485745  0.74656753  0.36228892    -0.60200
H289        H  0.27829638  0.72210927  0.37992195     0.43800
H290        H  0.47196281  0.94398278  0.34589809     0.43800
O291        O  0.27825215  0.58523354  0.79634300    -0.81600
C292        C  0.36049861  0.76013167  0.69481963     0.97700
O293        O  0.31998594  0.74190847  0.71569173    -0.70700
O294        O  0.25547254  0.64515028  0.70096335    -0.74300
Al295      Al  0.28440370  0.68212957  0.74908596     1.49000
C296        C  0.24289357  0.59952386  0.69374027     0.93000
O297        O  0.35810171  0.61219421  0.70231301    -0.80500
O298        O  0.41428884  0.69622620  0.79921673    -0.74100
Al299      Al  0.31931483  0.60290713  0.74945217     1.90100
O300        O  0.42626105  0.68520566  0.71869795    -0.73200
O301        O  0.38913145  0.76444469  0.78260264    -0.73000
O302        O  0.39310800  0.74721306  0.70185849    -0.78700
O303        O  0.30735905  0.72091741  0.79742487    -0.76900
O304        O  0.33446821  0.66785243  0.74978389    -1.13000
O305        O  0.23780503  0.62557406  0.78192834    -0.72200
C306        C  0.24171089  0.59272596  0.80242443     0.98500
C307        C  0.40466765  0.64552499  0.69700263     0.94900
Al308      Al  0.40002210  0.71886631  0.75053366     1.55600
O309        O  0.26104951  0.57773137  0.71455764    -0.76800
C310        C  0.35188502  0.75848338  0.80372067     0.99100
C311        C  0.40523709  0.65167224  0.80631637     0.94000
O312        O  0.37424089  0.61417224  0.78459626    -0.82100
O313        O  0.58236906  0.28036051  0.70243310    -0.81600
C314        C  0.75594389  0.36007037  0.80514095     0.97700
O315        O  0.73672344  0.31937871  0.78467468    -0.70700
O316        O  0.63981524  0.25653877  0.79926171    -0.74300
Al317      Al  0.67753979  0.28472221  0.75123319     1.49000
C318        C  0.59399711  0.24440500  0.80563462     0.93000
O319        O  0.60818694  0.35951134  0.79710766    -0.80500
O320        O  0.69264194  0.41464520  0.70034228    -0.74100
Al321      Al  0.59912196  0.32083794  0.74969476     1.90100
O322        O  0.68208228  0.42682044  0.78125748    -0.73200
O323        O  0.76037771  0.38873530  0.71722859    -0.73000
O324        O  0.74435843  0.39358644  0.79791999    -0.78700
O325        O  0.71725827  0.30691607  0.70312625    -0.76900
O326        O  0.66403237  0.33527005  0.75004620    -1.13000
O327        O  0.62109977  0.23880211  0.71834264    -0.72200
C328        C  0.58925837  0.24335344  0.69695994     0.98500
C329        C  0.64217458  0.40580936  0.80276663     0.94900
Al330      Al  0.71544774  0.40036323  0.74925633     1.55600
O331        O  0.57285944  0.26248062  0.78397586    -0.76800
C332        C  0.75469907  0.35141182  0.69652217     0.99100
C333        C  0.64815572  0.40634675  0.69325876     0.94000
O334        O  0.61074621  0.37588057  0.71509759    -0.82100
N335        N  0.91751284  0.38857393  0.00005225    -0.36400
N336        N  0.99680304  0.43043802  0.93772249    -0.57000
N337        N  0.07611176  0.47224690  0.99844208    -0.36400
N338        N  0.99718137  0.43258761  0.56085717    -0.57000
C339        C  0.89005837  0.38735926  0.96737258     0.27200
C340        C  0.88982863  0.38571332  0.53296351     0.27200
C341        C  0.10411995  0.49629795  0.96523145     0.27200
C342        C  0.10428217  0.49900481  0.53098552     0.27200
C343        C  0.95479501  0.40460590  0.91415343     0.35800
C344        C  0.03775796  0.44615701  0.91327804     0.35800
C345        C  0.95626484  0.40613682  0.58536151     0.35800
C346        C  0.03928296  0.45137103  0.58462263     0.35800
C347        C  0.84413177  0.38259482  0.97971832    -0.21700
C348        C  0.84387796  0.38129263  0.52103417    -0.21700
C349        C  0.15122148  0.53777516  0.97675803    -0.21700
C350        C  0.15123440  0.53966199  0.51831370    -0.21700
C351        C  0.96901008  0.40313167  0.87460961    -0.22800
C352        C  0.02172842  0.42952707  0.87405562    -0.22800
C353        C  0.97243592  0.40759856  0.62482167    -0.22800
C354        C  0.02511554  0.43644767  0.62437621    -0.22800
C355        C  0.90459414  0.38929827  0.92662068    -0.18100
C356        C  0.90487686  0.38719545  0.57356943    -0.18100
C357        C  0.08974497  0.48657478  0.57179702    -0.18100
C358        C  0.08883304  0.48120105  0.92481593    -0.18100
H359        H  0.81392263  0.38053145  0.96085319     0.14800
H360        H  0.81366962  0.37849045  0.54018116     0.14800
H361        H  0.18228248  0.56427248  0.95735529     0.14800
H362        H  0.18243873  0.56766990  0.53697820     0.14800
H363        H  0.94403252  0.38672613  0.84860027     0.13100
H364        H  0.04550268  0.43758055  0.84753403     0.13100
H365        H  0.94869482  0.39142806  0.65138590     0.13100
H366        H  0.05004827  0.44676815  0.65052479     0.13100
H367        H  0.95109801  0.38726413  0.99979561     0.26300
H368        H  0.04187165  0.43716962  0.99911288     0.26300
N369        N  0.60514510  0.53040109  0.99814101    -0.36400
N370        N  0.56621892  0.57064129  0.93687596    -0.57000
N371        N  0.52529283  0.60439583  0.00131713    -0.36400
N372        N  0.56921797  0.56934138  0.56246112    -0.57000
C373        C  0.62507660  0.52217551  0.96453075     0.27200
C374        C  0.62669531  0.52120549  0.53039252     0.27200
C375        C  0.51628937  0.62592823  0.96907433     0.27200
C376        C  0.51755050  0.62497544  0.53468802     0.27200
C377        C  0.57792442  0.54219827  0.91284949     0.35800
C378        C  0.53603575  0.58209588  0.91465209     0.35800
C379        C  0.58328652  0.54155340  0.58511261     0.35800
C380        C  0.54108295  0.58123999  0.58676238     0.35800
C381        C  0.66036734  0.50823449  0.97543399    -0.21700
C382        C  0.66086346  0.50690464  0.51702287    -0.21700
C383        C  0.50276675  0.66069989  0.98217484    -0.21700
C384        C  0.50376331  0.66027249  0.52358254    -0.21700
C385        C  0.55650910  0.53702038  0.87480338    -0.22800
C386        C  0.53007876  0.56243237  0.87590999    -0.21800
C387        C  0.56590888  0.53779888  0.62442538    -0.22800
C388        C  0.53889003  0.56256729  0.62538597    -0.22800
C389        C  0.60784462  0.52093613  0.92460680    -0.18100
C390        C  0.61189516  0.51970037  0.57111754    -0.18100
C391        C  0.51757132  0.60902697  0.57476392    -0.18100
C392        C  0.51464655  0.61102249  0.92847584    -0.18100
H393        H  0.68178814  0.49781063  0.95551964     0.14800
H394        H  0.68291168  0.49534092  0.53511838     0.14800
H395        H  0.49192069  0.68307752  0.96378218     0.14800
H396        H  0.49393661  0.68225282  0.54337462     0.14800
H397        H  0.55918427  0.51663187  0.84903188     0.13100
H398        H  0.50852945  0.56560134  0.85111812     0.13100
H399        H  0.57160302  0.51879323  0.64980471     0.13100
H400        H  0.51950585  0.56595512  0.65154199     0.13100
H401        H  0.57295791  0.53385970  0.99898418     0.26300
H402        H  0.52856376  0.57212594  0.00058688     0.26300
N403        N  0.46232647  0.08045259  0.50113595    -0.36400
N404        N  0.42958441  0.00266714  0.93851269    -0.57000
N405        N  0.39511730  0.92320147  0.49850955    -0.36400
N406        N  0.42839735  0.00017632  0.56113198    -0.57000
C407        C  0.48878002  0.10922838  0.96894603     0.27200
C408        C  0.48655811  0.10798480  0.53454013     0.27200
C409        C  0.39517473  0.89773938  0.96518891     0.27200
C410        C  0.39670048  0.89673870  0.53076014     0.27200
C411        C  0.44324769  0.04415273  0.91532667     0.35800
C412        C  0.40532011  0.96158927  0.91387828     0.35800
C413        C  0.43969243  0.03999667  0.58570612     0.35800
C414        C  0.40576160  0.95777919  0.58443556     0.35800
C415        C  0.52933333  0.15601198  0.98197657    -0.21700
C416        C  0.52810368  0.15514945  0.52338684    -0.21700
C417        C  0.39613301  0.85431016  0.97635428    -0.21700
C418        C  0.39686335  0.85352645  0.51770360    -0.21700
C419        C  0.42703498  0.02946648  0.87582527    -0.22800
C420        C  0.40245928  0.97695364  0.87498515    -0.22800
C421        C  0.42317747  0.02273086  0.62469325    -0.22800
C422        C  0.40192050  0.97057251  0.62393627    -0.22800
C423        C  0.47689765  0.09482747  0.92806440    -0.18100
C424        C  0.47219133  0.09178356  0.57484401    -0.18100
C425        C  0.39526787  0.90917395  0.57161495    -0.18100
C426        C  0.39265853  0.91168987  0.92494736    -0.18100
H427        H  0.55747034  0.18729339  0.96358531     0.14800
H428        H  0.55523613  0.18561156  0.54300602     0.14800
H429        H  0.39629313  0.82598991  0.95668020     0.14800
H430        H  0.39739036  0.82437817  0.53608143     0.14800
H431        H  0.43406097  0.05413078  0.85004667     0.13100
H432        H  0.38678727  0.95307656  0.84838947     0.13100
H433        H  0.42841525  0.04562488  0.65130229     0.13100
H434        H  0.38746461  0.94534200  0.64984015     0.13100
H435        H  0.42754880  0.04570439  0.50033568     0.26300
H436        H  0.38896973  0.95381980  0.49926575     0.26300
C437        C  0.55910729  0.20423680  0.66590433    -0.05300
C438        C  0.52411507  0.20956758  0.64147731    -0.32700
C439        C  0.49431124  0.17246108  0.61256405     0.36500
C440        C  0.49965302  0.12960046  0.60744608    -0.05600
C441        C  0.53449414  0.12417388  0.63159410    -0.32600
C442        C  0.56404575  0.16084828  0.66064221     0.36500
H443        H  0.51966285  0.24248610  0.64477902     0.16800
O444        O  0.46086077  0.17882652  0.58886491    -0.60100
H445        H  0.53927125  0.09152924  0.62746260     0.16800
O446        O  0.59710942  0.15334928  0.68391039    -0.60200
H447        H  0.62911763  0.16752237  0.66783605     0.43800
H448        H  0.42854322  0.16376470  0.60464499     0.43800
C449        C  0.50672911  0.13346525  0.89687038    -0.05300
C450        C  0.49006902  0.16573522  0.88253462    -0.32700
C451        C  0.51833583  0.20252605  0.85308839     0.36500
C452        C  0.56420330  0.20744964  0.83789370    -0.05600
C453        C  0.58101800  0.17540795  0.85305656    -0.32600
C454        C  0.55231524  0.13827550  0.88202352     0.36500
H455        H  0.45500677  0.16217712  0.89411649     0.16800
O456        O  0.50061421  0.23321067  0.83938338    -0.60100
H457        H  0.61596879  0.17836523  0.84186246     0.16800
O458        O  0.56928542  0.10710814  0.89607986    -0.60200
H459        H  0.55343649  0.07686789  0.87788158     0.43800
H460        H  0.51816458  0.26449842  0.85638528     0.43800
C461        C  0.86656973  0.38118825  0.89514514    -0.05300
C462        C  0.87019944  0.42389430  0.87580876    -0.32700
C463        C  0.83385002  0.41773266  0.84691257     0.36500
C464        C  0.79317106  0.36821116  0.83713020    -0.05600
C465        C  0.78968806  0.32549043  0.85668933    -0.32600
C466        C  0.82593383  0.33180151  0.88577109     0.36500
H467        H  0.90139797  0.46208507  0.88323076     0.16800
O468        O  0.83913260  0.46022144  0.82786090    -0.60100
H469        H  0.75871654  0.28711499  0.84945394     0.16800
O470        O  0.82206274  0.28961137  0.90427694    -0.60200
H471        H  0.80154114  0.28440262  0.92901632     0.43800
H472        H  0.85767718  0.46319857  0.80241942     0.43800
C473        C  0.86656963  0.37677558  0.60554120    -0.05300
C474        C  0.86965614  0.41824565  0.62633246    -0.32700
C475        C  0.83348513  0.41059939  0.65567678     0.36500
C476        C  0.79300905  0.36043163  0.66484634    -0.05600
C477        C  0.78984384  0.31883473  0.64356560    -0.32600
C478        C  0.82607023  0.32684235  0.61383265     0.36500
H479        H  0.90016186  0.45692922  0.61941919     0.16800
O480        O  0.83757841  0.45276809  0.67438159    -0.60100
H481        H  0.75923150  0.28002649  0.64987592     0.16800
O482        O  0.82204364  0.28573906  0.59338711    -0.60200
H483        H  0.79956508  0.28059680  0.56985284     0.43800
H484        H  0.86198180  0.46060585  0.69705817     0.43800
C485        C  0.62304746  0.48965822  0.60033353    -0.05300
C486        C  0.58268488  0.44166680  0.61271393    -0.32700
C487        C  0.59047590  0.41374241  0.64241918     0.36500
C488        C  0.63963509  0.43349011  0.65990481    -0.05600
C489        C  0.68050926  0.48070533  0.64623008    -0.32600
C490        C  0.67227956  0.50910117  0.61706340     0.36500
H491        H  0.54463393  0.42641758  0.59988546     0.16800
O492        O  0.54955959  0.36754652  0.65443002    -0.60100
H493        H  0.71855007  0.49651705  0.65917957     0.16800
O494        O  0.71237017  0.55589560  0.60528041    -0.60200
H495        H  0.71174814  0.58095609  0.62407301     0.43800
H496        H  0.55047887  0.34166565  0.63682522     0.43800
C497        C  0.63501158  0.43596879  0.83445273    -0.05300
C498        C  0.59629293  0.41049662  0.86353978    -0.32700
C499        C  0.58791890  0.43799908  0.89323543     0.36500
C500        C  0.61812028  0.49174286  0.89410219    -0.05600
C501        C  0.65706233  0.51748311  0.86553464    -0.32600
C502        C  0.66603172  0.49005595  0.83604503     0.36500
H503        H  0.57236765  0.36909495  0.86334229     0.16800
O504        O  0.55013608  0.41208439  0.92143235    -0.60100
H505        H  0.68040536  0.55893131  0.86608473     0.16800
O506        O  0.70418666  0.51672820  0.80828284    -0.60200
H507        H  0.73591284  0.52137383  0.82107462     0.43800
H508        H  0.51932741  0.41129729  0.91035232     0.43800
C509        C  0.20505098  0.57084480  0.66155377    -0.05300
C510        C  0.17186314  0.58754181  0.64877289    -0.32700
C511        C  0.13410083  0.56012399  0.61971280     0.36500
C512        C  0.12906553  0.51536971  0.60301985    -0.05600
C513        C  0.16245704  0.49887257  0.61500211    -0.32600
C514        C  0.20041165  0.52629358  0.64407375     0.36500
H515        H  0.17461732  0.62154353  0.66176753     0.16800
O516        O  0.10185732  0.57695047  0.60804709    -0.60100
H517        H  0.15904057  0.46471981  0.60169855     0.16800
O518        O  0.23270611  0.50924439  0.65501225    -0.60200
H519        H  0.26265036  0.52720553  0.63672716     0.43800
H520        H  0.11863266  0.59915986  0.58424530     0.43800
C521        C  0.12708297  0.50853759  0.89261081    -0.05300
C522        C  0.15825979  0.49008769  0.87913005    -0.32700
C523        C  0.19586653  0.51688525  0.84967220     0.36500
C524        C  0.20264119  0.56301711  0.83360498    -0.05600
C525        C  0.17072092  0.58084139  0.84714280    -0.32600
C526        C  0.13299435  0.55377210  0.87615939     0.36500
H527        H  0.15333433  0.45484189  0.89145602     0.16800
O528        O  0.22421115  0.49661643  0.83567932    -0.60100
H529        H  0.17507785  0.61608498  0.83535279     0.16800
O530        O  0.10269762  0.57232641  0.88901141    -0.60200
H531        H  0.07373822  0.55865193  0.86947135     0.43800
H532        H  0.24763444  0.50062479  0.85815325     0.43800
C533        C  0.43430547  0.63776851  0.66541827    -0.05300
C534        C  0.40805869  0.60345669  0.63363094    -0.32700
C535        C  0.43499143  0.59458551  0.60374179     0.36500
C536        C  0.48893808  0.61994427  0.60543343    -0.05600
C537        C  0.51539906  0.65468157  0.63676387    -0.32600
C538        C  0.48852415  0.66345784  0.66682844     0.36500
H539        H  0.36649440  0.58334116  0.63190910     0.16800
O540        O  0.40829237  0.55979532  0.57365507    -0.60100
H541        H  0.55695103  0.67426553  0.63824829     0.16800
O542        O  0.51564705  0.69631827  0.69785873    -0.60200
H543        H  0.51747274  0.67441529  0.71920951     0.43800
H544        H  0.39978297  0.57859833  0.55362114     0.43800
C545        C  0.43196967  0.64307919  0.83974166    -0.05300
C546        C  0.48331533  0.68002135  0.84855170    -0.32700
C547        C  0.51059189  0.67035039  0.87784718     0.36500
C548        C  0.48613533  0.62379858  0.89912295    -0.05600
C549        C  0.43430506  0.58786097  0.89162056    -0.32600
C550        C  0.40716008  0.59720348  0.86214221     0.36500
H551        H  0.50277832  0.71561607  0.83175266     0.16800
O552        O  0.56105629  0.70634755  0.88541189    -0.60100
H553        H  0.41519995  0.55212945  0.90826957     0.16800
O554        O  0.35645607  0.56121863  0.85542477    -0.60200
H555        H  0.33684584  0.57467403  0.86930195     0.43800
H556        H  0.58121759  0.69579261  0.86875949     0.43800
C557        C  0.38602618  0.87046346  0.60275881    -0.05300
C558        C  0.42703067  0.86561508  0.61643379    -0.32700
C559        C  0.41925023  0.82924548  0.64579136     0.36500
C560        C  0.36982594  0.79757381  0.66243149    -0.05600
C561        C  0.32884111  0.80265580  0.64838203    -0.32600
C562        C  0.33672382  0.83873091  0.61872376     0.36500
H563        H  0.46518413  0.89015569  0.60420500     0.16800
O564        O  0.46060163  0.82634579  0.65890359    -0.60100
H565        H  0.29048603  0.77857899  0.66036859     0.16800
O566        O  0.29602998  0.84252219  0.60522483    -0.60200
H567        H  0.29440713  0.86725981  0.62375329     0.43800
H568        H  0.46317466  0.80270163  0.63974897     0.43800
C569        C  0.36119250  0.79699750  0.83516127    -0.05300
C570        C  0.41000529  0.84176190  0.83769892    -0.32700
C571        C  0.42026874  0.87962736  0.86625481     0.36500
C572        C  0.38142479  0.87340789  0.89278828    -0.05600
C573        C  0.33281620  0.82871663  0.89081142    -0.32600
C574        C  0.32259016  0.79038948  0.86254705     0.36500
H575        H  0.44063724  0.84760943  0.81754008     0.16800
O576        O  0.46895578  0.92165188  0.86922746    -0.60100
H577        H  0.30304033  0.82323122  0.91179600     0.16800
O578        O  0.27495273  0.74667144  0.86229822    -0.60200
H579        H  0.27832838  0.72218971  0.87994938     0.43800
H580        H  0.47219772  0.94403901  0.84621591     0.43800
loop_ 
_geom_bond_atom_site_label_1 
_geom_bond_atom_site_label_2 
_geom_bond_distance 
_geom_bond_site_symmetry_2 
_ccdc_geom_bond_type 
O1           C16   1.258       .  A
O1           Al9   1.889       .  S
C2           O12   1.260       .  A
C2            O3   1.264       .  A
C2          C270   1.481       .  S
O3           Al5   1.918       .  S
O4            C6   1.259       .  A
O4           Al5   1.884       .  S
Al5          O13   1.894       .  S
Al5          O15   1.909       .  S
Al5          O14   1.782       .  S
C6           O19   1.261       .  A
C6          C219   1.476       .  S
O7           C17   1.258       .  A
O7           Al9   1.888       .  S
O8           C21   1.259       .  A
O8          Al18   1.886       .  S
Al9          O22   1.910       .  S
Al9          O19   1.908       .  S
Al9          O14   1.784       .  S
O10          C17   1.260       .  A
O10         Al18   1.907       .  S
O11          C20   1.262       .  A
O11         Al18   1.906       .  S
O12         Al18   1.888       .  S
O13          C20   1.259       .  A
O14         Al18   1.786       .  S
O15          C16   1.262       .  A
C16         C234   1.480       .  S
C17         C243   1.477       .  S
C20         C279   1.481       .  S
C21          O22   1.263       .  A
C21         C255   1.471       .  S
O23          C38   1.260       .  A
O23         Al31   1.891       .  S
C24          O34   1.261       .  A
C24          O25   1.260       .  A
C24         C174   1.471       .  S
O25         Al27   1.898       .  S
O26          C28   1.260       .  A
O26         Al27   1.889       .  S
Al27         O35   1.901       .  S
Al27         O37   1.897       .  S
Al27         O36   1.785       .  S
C28          O41   1.260       .  A
C28         C162   1.476       .  S
O29          C39   1.260       .  A
O29         Al31   1.894       .  S
O30          C43   1.260       .  A
O30         Al40   1.895       .  S
Al31         O44   1.906       .  S
Al31         O41   1.903       .  S
Al31         O36   1.784       .  S
O32          C39   1.261       .  A
O32         Al40   1.908       .  S
O33          C42   1.260       .  A
O33         Al40   1.900       .  S
O34         Al40   1.893       .  S
O35          C42   1.261       .  A
O36         Al40   1.783       .  S
O37          C38   1.260       .  A
C38         C147   1.478       .  S
C39         C207   1.482       .  S
C42         C186   1.484       .  S
C43          O44   1.261       .  A
C43         C198   1.478       .  S
N45          H77   1.040       .  S
N45          C49   1.352       .  A
N45         C340   1.353       .  A
N46          C53   1.347       .  A
N46          C54   1.349   1_655  A
N47          H78   1.039       .  S
N47          C51   1.353       .  A
N47         C342   1.351       .  A
N48          C55   1.350       .  A
N48          C56   1.349   1_655  A
C49          C57   1.388       .  A
C49          C65   1.411       .  A
C50         N335   1.353       .  A
C50          C66   1.411       .  A
C50          C58   1.386       .  A
C51          C59   1.387       .  A
C51          C68   1.412       .  A
C52         N337   1.351   1_554  A
C52          C67   1.411       .  A
C52          C60   1.388       .  A
C53          C65   1.407       .  A
C53          C61   1.387       .  A
C54          C68   1.408       .  A
C54          C62   1.386       .  A
C55          C63   1.386       .  A
C55          C66   1.410       .  A
C56          C64   1.387       .  A
C56          C67   1.410       .  A
C57         C348   1.371       .  A
C57          H69   1.082       .  S
C58         C347   1.371   1_554  A
C58          H70   1.082       .  S
C59         C350   1.373       .  A
C59          H71   1.082       .  S
C60         C349   1.372   1_554  A
C60          H72   1.082       .  S
C61          C62   1.372   1_655  A
C61          H73   1.083       .  S
C62          H74   1.082       .  S
C63          C64   1.372   1_655  A
C63          H75   1.083       .  S
C64          H76   1.082       .  S
C65         C171   1.476       .  S
C66         C183   1.483       .  S
C67         C222   1.475       .  S
C68         C231   1.479       .  S
N79         H111   1.035       .  S
N79          C83   1.351       .  A
N79         C374   1.351       .  A
N80          C87   1.351       .  A
N80          C88   1.351       .  A
N81         H112   1.037       .  S
N81          C85   1.351       .  A
N81         C376   1.350       .  A
N82          C89   1.352       .  A
N82          C90   1.352       .  A
C83          C91   1.386       .  A
C83          C99   1.413       .  A
C84         N369   1.351   1_554  A
C84         C100   1.414       .  A
C84          C92   1.388       .  A
C85          C93   1.387       .  A
C85         C102   1.410       .  A
C86         N371   1.350       .  A
C86         C101   1.412       .  A
C86          C94   1.387       .  A
C87          C99   1.413       .  A
C87          C95   1.386       .  A
C88         C102   1.412       .  A
C88          C96   1.386       .  A
C89          C97   1.387       .  A
C89         C100   1.416       .  A
C90          C98   1.386       .  A
C90         C101   1.414       .  A
C91         C382   1.375       .  A
C91         H103   1.083       .  S
C92         C381   1.375   1_554  A
C92         H104   1.081       .  S
C93         C384   1.374       .  A
C93         H105   1.082       .  S
C94         C383   1.374   1_554  A
C94         H106   1.083       .  S
C95          C96   1.371       .  A
C95         H107   1.082       .  S
C96         H108   1.082       .  S
C97          C98   1.370       .  A
C97         H109   1.082       .  S
C98         H110   1.082       .  S
C99         C210   1.480       .  S
C100        C195   1.483       .  S
C101        C246   1.482       .  S
C102        C258   1.478       .  S
N113        H145   1.041       .  S
N113        C118   1.352       .  A
N113        C407   1.352   1_554  A
N114        C121   1.348       .  A
N114        C122   1.349   1_545  A
N115        H146   1.040       .  S
N115        C120   1.352   1_556  A
N115        C409   1.351       .  A
N116        C123   1.349       .  A
N116        C124   1.349   1_545  A
C117        N403   1.352       .  A
C117        C125   1.387       .  A
C117        C133   1.410       .  A
C118        C134   1.412       .  A
C118        C126   1.388       .  A
C119        N405   1.351       .  A
C119        C127   1.387       .  A
C119        C136   1.411       .  A
C120        C135   1.411       .  A
C120        C128   1.387       .  A
C121        C133   1.406       .  A
C121        C129   1.386       .  A
C122        C136   1.410       .  A
C122        C130   1.386       .  A
C123        C131   1.387       .  A
C123        C134   1.410       .  A
C124        C132   1.386       .  A
C124        C135   1.409       .  A
C125        C416   1.371       .  A
C125        H137   1.082       .  S
C126        C415   1.371   1_554  A
C126        H138   1.082       .  S
C127        C418   1.373       .  A
C127        H139   1.082       .  S
C128        C417   1.373   1_554  A
C128        H140   1.082       .  S
C129        C130   1.373   1_545  A
C129        H141   1.083       .  S
C130        H142   1.082       .  S
C131        C132   1.372   1_545  A
C131        H143   1.082       .  S
C132        H144   1.082       .  S
C133        C159   1.475       .  S
C134        C150   1.481       .  S
C135        C267   1.479       .  S
C136        C282   1.482       .  S
C147        C148   1.407       .  A
C147        C152   1.414       .  A
C148        C149   1.398       .  A
C148        H153   1.083       .  S
C149        C150   1.405       .  A
C149        O154   1.371       .  S
C150        C151   1.399       .  A
C151        C152   1.393       .  A
C151        H155   1.084       .  S
C152        O156   1.372       .  S
O154        H158   0.992       .  S
O156        H157   0.992       .  S
C159        C160   1.398       .  A
C159        C164   1.404       .  A
C160        C161   1.398       .  A
C160        H165   1.084       .  S
C161        C162   1.415       .  A
C161        O166   1.372       .  S
C162        C163   1.404       .  A
C163        C164   1.395       .  A
C163        H167   1.083       .  S
C164        O168   1.372       .  S
O166        H170   0.992       .  S
O168        H169   0.992       .  S
C171        C172   1.401       .  A
C171        C176   1.403       .  A
C172        C173   1.395       .  A
C172        H177   1.084       .  S
C173        C174   1.409       .  A
C173        O178   1.372       .  S
C174        C175   1.407       .  A
C175        C176   1.396       .  A
C175        H179   1.084       .  S
C176        O180   1.372       .  S
O178        H182   0.992       .  S
O180        H181   0.992       .  S
C183        C184   1.398       .  A
C183        C188   1.405       .  A
C184        C185   1.394       .  A
C184        H189   1.084       .  S
C185        C186   1.416       .  A
C185        O190   1.372       .  S
C186        C187   1.408       .  A
C187        C188   1.402       .  A
C187        H191   1.083       .  S
C188        O192   1.371       .  S
O190        H194   0.992       .  S
O192        H193   0.992       .  S
C195        C196   1.401       .  A
C195        C200   1.405       .  A
C196        C197   1.396       .  A
C196        H201   1.084       .  S
C197        C198   1.412       .  A
C197        O202   1.372       .  S
C198        C199   1.406       .  A
C199        C200   1.400       .  A
C199        H203   1.083       .  S
C200        O204   1.371       .  S
O202        H206   0.992       .  S
O204        H205   0.992       .  S
C207        C208   1.406       .  A
C207        C212   1.416       .  A
C208        C209   1.397       .  A
C208        H213   1.083       .  S
C209        C210   1.405       .  A
C209        O214   1.372       .  S
C210        C211   1.398       .  A
C211        C212   1.400       .  A
C211        H215   1.084       .  S
C212        O216   1.372       .  S
O214        H218   0.992       .  S
O216        H217   0.992       .  S
C219        C220   1.405       .  A
C219        C224   1.413       .  A
C220        C221   1.395       .  A
C220        H225   1.083       .  S
C221        C222   1.403       .  A
C221        O226   1.372       .  S
C222        C223   1.399       .  A
C223        C224   1.398       .  A
C223        H227   1.084       .  S
C224        O228   1.372       .  S
O226        H230   0.992       .  S
O228        H229   0.991       .  S
C231        C232   1.399       .  A
C231        C236   1.403       .  A
C232        C233   1.402       .  A
C232        H237   1.084       .  S
C233        C234   1.414       .  A
C233        O238   1.372       .  S
C234        C235   1.406       .  A
C235        C236   1.395       .  A
C235        H239   1.083       .  S
C236        O240   1.372       .  S
O238        H242   0.990       .  S
O240        H241   0.992       .  S
C243        C244   1.404       .  A
C243        C248   1.413       .  A
C244        C245   1.397       .  A
C244        H249   1.084       .  S
C245        C246   1.407       .  A
C245        O250   1.372       .  S
C246        C247   1.400       .  A
C247        C248   1.398       .  A
C247        H251   1.084       .  S
C248        O252   1.372       .  S
O250        H254   0.992       .  S
O252        H253   0.992       .  S
C255        C256   1.404       .  A
C255        C260   1.409       .  A
C256        C257   1.399       .  A
C256        H261   1.084       .  S
C257        C258   1.405       .  A
C257        O262   1.371       .  S
C258        C259   1.400       .  A
C259        C260   1.395       .  A
C259        H263   1.084       .  S
C260        O264   1.372       .  S
O262        H266   0.993       .  S
O264        H265   0.992       .  S
C267        C268   1.400       .  A
C267        C272   1.403       .  A
C268        C269   1.398       .  A
C268        H273   1.084       .  S
C269        C270   1.414       .  A
C269        O274   1.372       .  S
C270        C271   1.408       .  A
C271        C272   1.398       .  A
C271        H275   1.083       .  S
C272        O276   1.371       .  S
O274        H278   0.992       .  S
O276        H277   0.992       .  S
C279        C280   1.407       .  A
C279        C284   1.413       .  A
C280        C281   1.396       .  A
C280        H285   1.083       .  S
C281        C282   1.404       .  A
C281        O286   1.372       .  S
C282        C283   1.402       .  A
C283        C284   1.400       .  A
C283        H287   1.084       .  S
C284        O288   1.372       .  S
O286        H290   0.992       .  S
O288        H289   0.992       .  S
O291        C306   1.258       .  A
O291       Al299   1.889       .  S
C292        O302   1.260       .  A
C292        O293   1.264       .  A
C292        C560   1.482       .  S
O293       Al295   1.918       .  S
O294        C296   1.259       .  A
O294       Al295   1.884       .  S
Al295       O303   1.894       .  S
Al295       O305   1.909       .  S
Al295       O304   1.782       .  S
C296        O309   1.261       .  A
C296        C509   1.476       .  S
O297        C307   1.258       .  A
O297       Al299   1.888       .  S
O298        C311   1.259       .  A
O298       Al308   1.886       .  S
Al299       O312   1.910       .  S
Al299       O309   1.908       .  S
Al299       O304   1.784       .  S
O300        C307   1.260       .  A
O300       Al308   1.907       .  S
O301        C310   1.262       .  A
O301       Al308   1.906       .  S
O302       Al308   1.888       .  S
O303        C310   1.259       .  A
O304       Al308   1.786       .  S
O305        C306   1.262       .  A
C306        C524   1.480       .  S
C307        C533   1.477       .  S
C310        C569   1.482       .  S
C311        O312   1.264       .  A
C311        C545   1.470       .  S
O313        C328   1.260       .  A
O313       Al321   1.891       .  S
C314        O324   1.261       .  A
C314        O315   1.260       .  A
C314        C464   1.471       .  S
O315       Al317   1.898       .  S
O316        C318   1.260       .  A
O316       Al317   1.889       .  S
Al317       O325   1.901       .  S
Al317       O327   1.897       .  S
Al317       O326   1.784       .  S
C318        O331   1.260       .  A
C318        C452   1.476       .  S
O319        C329   1.260       .  A
O319       Al321   1.894       .  S
O320        C333   1.260       .  A
O320       Al330   1.894       .  S
Al321       O334   1.906       .  S
Al321       O331   1.903       .  S
Al321       O326   1.784       .  S
O322        C329   1.261       .  A
O322       Al330   1.908       .  S
O323        C332   1.260       .  A
O323       Al330   1.900       .  S
O324       Al330   1.893       .  S
O325        C332   1.261       .  A
O326       Al330   1.783       .  S
O327        C328   1.260       .  A
C328        C437   1.478       .  S
C329        C497   1.482       .  S
C332        C476   1.484       .  S
C333        O334   1.261       .  A
C333        C488   1.478       .  S
N335        H367   1.040   1_554  S
N335        C339   1.352   1_554  A
N336        C343   1.347       .  A
N336        C344   1.349   1_655  A
N337        H368   1.039       .  S
N337        C341   1.353       .  A
N338        C345   1.350       .  A
N338        C346   1.349   1_655  A
C339        C347   1.387       .  A
C339        C355   1.411       .  A
C340        C356   1.411       .  A
C340        C348   1.386       .  A
C341        C349   1.387       .  A
C341        C358   1.411       .  A
C342        C357   1.411       .  A
C342        C350   1.388       .  A
C343        C355   1.407       .  A
C343        C351   1.387       .  A
C344        C358   1.408       .  A
C344        C352   1.386       .  A
C345        C353   1.386       .  A
C345        C356   1.410       .  A
C346        C354   1.387       .  A
C346        C357   1.410       .  A
C347        H359   1.082       .  S
C348        H360   1.082       .  S
C349        H361   1.082       .  S
C350        H362   1.082       .  S
C351        C352   1.372   1_655  A
C351        H363   1.083       .  S
C352        H364   1.082       .  S
C353        C354   1.372   1_655  A
C353        H365   1.083       .  S
C354        H366   1.082       .  S
C355        C461   1.476       .  S
C356        C473   1.482       .  S
C357        C512   1.476       .  S
C358        C521   1.479       .  S
N369        H401   1.035       .  S
N369        C373   1.351       .  A
N370        C377   1.351       .  A
N370        C378   1.351       .  A
N371        H402   1.037       .  S
N371        C375   1.350   1_554  A
N372        C379   1.352       .  A
N372        C380   1.352       .  A
C373        C381   1.386       .  A
C373        C389   1.413       .  A
C374        C390   1.415       .  A
C374        C382   1.388       .  A
C375        C383   1.387       .  A
C375        C392   1.410       .  A
C376        C391   1.412       .  A
C376        C384   1.387       .  A
C377        C389   1.413       .  A
C377        C385   1.386       .  A
C378        C392   1.413       .  A
C378        C386   1.386       .  A
C379        C387   1.387       .  A
C379        C390   1.417       .  A
C380        C388   1.386       .  A
C380        C391   1.414       .  A
C381        H393   1.083       .  S
C382        H394   1.081       .  S
C383        H395   1.082       .  S
C384        H396   1.083       .  S
C385        C386   1.371       .  A
C385        H397   1.082       .  S
C386        H398   1.082       .  S
C387        C388   1.370       .  A
C387        H399   1.082       .  S
C388        H400   1.082       .  S
C389        C500   1.481       .  S
C390        C485   1.483       .  S
C391        C536   1.482       .  S
C392        C548   1.478       .  S
N403        H435   1.041       .  S
N403        C408   1.352       .  A
N404        C411   1.348       .  A
N404        C412   1.349   1_545  A
N405        H436   1.040       .  S
N405        C410   1.352       .  A
N406        C413   1.349       .  A
N406        C414   1.349   1_545  A
C407        C415   1.387       .  A
C407        C423   1.410       .  A
C408        C424   1.412       .  A
C408        C416   1.388       .  A
C409        C417   1.387       .  A
C409        C426   1.411       .  A
C410        C425   1.411       .  A
C410        C418   1.387       .  A
C411        C423   1.406       .  A
C411        C419   1.386       .  A
C412        C426   1.410       .  A
C412        C420   1.386       .  A
C413        C421   1.387       .  A
C413        C424   1.410       .  A
C414        C422   1.386       .  A
C414        C425   1.409       .  A
C415        H427   1.082       .  S
C416        H428   1.082       .  S
C417        H429   1.082       .  S
C418        H430   1.082       .  S
C419        C420   1.373   1_545  A
C419        H431   1.083       .  S
C420        H432   1.082       .  S
C421        C422   1.372   1_545  A
C421        H433   1.082       .  S
C422        H434   1.082       .  S
C423        C449   1.475       .  S
C424        C440   1.481       .  S
C425        C557   1.479       .  S
C426        C572   1.482       .  S
C437        C438   1.407       .  A
C437        C442   1.414       .  A
C438        C439   1.398       .  A
C438        H443   1.083       .  S
C439        C440   1.405       .  A
C439        O444   1.371       .  S
C440        C441   1.399       .  A
C441        C442   1.393       .  A
C441        H445   1.084       .  S
C442        O446   1.372       .  S
O444        H448   0.992       .  S
O446        H447   0.992       .  S
C449        C450   1.398       .  A
C449        C454   1.404       .  A
C450        C451   1.398       .  A
C450        H455   1.084       .  S
C451        C452   1.415       .  A
C451        O456   1.372       .  S
C452        C453   1.405       .  A
C453        C454   1.395       .  A
C453        H457   1.083       .  S
C454        O458   1.372       .  S
O456        H460   0.992       .  S
O458        H459   0.992       .  S
C461        C462   1.401       .  A
C461        C466   1.403       .  A
C462        C463   1.395       .  A
C462        H467   1.084       .  S
C463        C464   1.409       .  A
C463        O468   1.372       .  S
C464        C465   1.406       .  A
C465        C466   1.396       .  A
C465        H469   1.084       .  S
C466        O470   1.372       .  S
O468        H472   0.992       .  S
O470        H471   0.992       .  S
C473        C474   1.398       .  A
C473        C478   1.405       .  A
C474        C475   1.394       .  A
C474        H479   1.084       .  S
C475        C476   1.416       .  A
C475        O480   1.372       .  S
C476        C477   1.408       .  A
C477        C478   1.402       .  A
C477        H481   1.083       .  S
C478        O482   1.371       .  S
O480        H484   0.992       .  S
O482        H483   0.992       .  S
C485        C486   1.401       .  A
C485        C490   1.405       .  A
C486        C487   1.396       .  A
C486        H491   1.084       .  S
C487        C488   1.412       .  A
C487        O492   1.372       .  S
C488        C489   1.406       .  A
C489        C490   1.400       .  A
C489        H493   1.083       .  S
C490        O494   1.371       .  S
O492        H496   0.992       .  S
O494        H495   0.992       .  S
C497        C498   1.406       .  A
C497        C502   1.416       .  A
C498        C499   1.397       .  A
C498        H503   1.083       .  S
C499        C500   1.405       .  A
C499        O504   1.372       .  S
C500        C501   1.399       .  A
C501        C502   1.400       .  A
C501        H505   1.084       .  S
C502        O506   1.372       .  S
O504        H508   0.992       .  S
O506        H507   0.992       .  S
C509        C510   1.405       .  A
C509        C514   1.413       .  A
C510        C511   1.395       .  A
C510        H515   1.083       .  S
C511        C512   1.403       .  A
C511        O516   1.372       .  S
C512        C513   1.399       .  A
C513        C514   1.398       .  A
C513        H517   1.084       .  S
C514        O518   1.372       .  S
O516        H520   0.992       .  S
O518        H519   0.991       .  S
C521        C522   1.399       .  A
C521        C526   1.403       .  A
C522        C523   1.402       .  A
C522        H527   1.084       .  S
C523        C524   1.414       .  A
C523        O528   1.372       .  S
C524        C525   1.406       .  A
C525        C526   1.395       .  A
C525        H529   1.083       .  S
C526        O530   1.372       .  S
O528        H532   0.990       .  S
O530        H531   0.992       .  S
C533        C534   1.404       .  A
C533        C538   1.413       .  A
C534        C535   1.397       .  A
C534        H539   1.084       .  S
C535        C536   1.407       .  A
C535        O540   1.372       .  S
C536        C537   1.400       .  A
C537        C538   1.398       .  A
C537        H541   1.084       .  S
C538        O542   1.372       .  S
O540        H544   0.992       .  S
O542        H543   0.992       .  S
C545        C546   1.404       .  A
C545        C550   1.409       .  A
C546        C547   1.399       .  A
C546        H551   1.084       .  S
C547        C548   1.405       .  A
C547        O552   1.371       .  S
C548        C549   1.400       .  A
C549        C550   1.395       .  A
C549        H553   1.084       .  S
C550        O554   1.372       .  S
O552        H556   0.993       .  S
O554        H555   0.992       .  S
C557        C558   1.400       .  A
C557        C562   1.403       .  A
C558        C559   1.398       .  A
C558        H563   1.084       .  S
C559        C560   1.414       .  A
C559        O564   1.372       .  S
C560        C561   1.408       .  A
C561        C562   1.398       .  A
C561        H565   1.083       .  S
C562        O566   1.371       .  S
O564        H568   0.992       .  S
O566        H567   0.992       .  S
C569        C570   1.407       .  A
C569        C574   1.413       .  A
C570        C571   1.396       .  A
C570        H575   1.083       .  S
C571        C572   1.404       .  A
C571        O576   1.372       .  S
C572        C573   1.402       .  A
C573        C574   1.400       .  A
C573        H577   1.084       .  S
C574        O578   1.372       .  S
O576        H580   0.992       .  S
O578        H579   0.992       .  S
