geometry optimzed in LAMMPS
_audit_creation_date              2020-11-30 
_audit_creation_method            'lammps2cif' 
_symmetry_space_group_name_H-M    'P1' 
_symmetry_Int_Tables_number       1 
_symmetry_cell_setting            triclinic 
loop_ 
_symmetry_equiv_pos_as_xyz 
  x,y,z 
_cell_length_a                    41.54378399 
_cell_length_b                    41.64838587301099 
_cell_length_c                    41.81318730230595 
_cell_angle_alpha                 89.92463689295197 
_cell_angle_beta                  89.9164579513013 
_cell_angle_gamma                 89.68684218511302 
loop_ 
_atom_site_label 
_atom_site_type_symbol 
_atom_site_fract_x 
_atom_site_fract_y 
_atom_site_fract_z 
_atom_site_charge 
O1          O  0.49446279  0.28310881  0.93804254    -0.70800
O2          O  0.43366085  0.26206058  0.00336258    -0.71100
O3          O  0.43211052  0.26595215  0.93925747    -0.70900
O4          O  0.49580022  0.27856678  0.00213324    -0.70900
O5          O  0.48148544  0.32860860  0.00653970    -0.70900
O6          O  0.41956324  0.31659222  0.94189229    -0.70900
O7          O  0.41938006  0.31221058  0.00554965    -0.70800
O8          O  0.48146558  0.33339365  0.94284238    -0.71000
V9          V  0.46378093  0.27335740  0.97073138     1.35200
V10         V  0.45071046  0.32168236  0.97413238     1.35200
C11         C  0.49850539  0.31204577  0.92951595     0.78400
C12         C  0.41606511  0.28377745  0.01554749     0.78500
C13         C  0.41517294  0.28925057  0.92968219     0.78300
C14         C  0.49923321  0.30554261  0.01532394     0.78300
O15         O  0.23658530  0.57445898  0.04919098    -0.70800
O16         O  0.22339681  0.52582406  0.97438800    -0.71100
O17         O  0.23865320  0.58674401  0.98660466    -0.70900
O18         O  0.22123823  0.51364608  0.03684473    -0.70900
O19         O  0.17069539  0.52689175  0.03934828    -0.70900
O20         O  0.18779703  0.59886845  0.98580815    -0.70900
O21         O  0.17235210  0.53690844  0.97557258    -0.70800
O22         O  0.18632934  0.58884778  0.04963190    -0.71000
V23         V  0.22887966  0.55043182  0.01179646     1.35200
V24         V  0.18015426  0.56266069  0.01259308     1.35200
C25         C  0.21410577  0.59038375  0.06204189     0.78400
C26         C  0.19583558  0.52272514  0.96216903     0.78500
C27         C  0.21632834  0.60512441  0.97722779     0.78300
C28         C  0.19322673  0.50781211  0.04693043     0.78300
O29         O  0.52766160  0.85600579  0.05133765    -0.70800
O30         O  0.58598998  0.87490336  0.98470796    -0.71100
O31         O  0.58979432  0.86959808  0.04847165    -0.70900
O32         O  0.52321253  0.86156695  0.98762669    -0.70900
O33         O  0.51301447  0.91255984  0.99165283    -0.70900
O34         O  0.57817076  0.92013206  0.05424222    -0.70900
O35         O  0.57615259  0.92584275  0.98991669    -0.70800
O36         O  0.51542949  0.90657420  0.05559072    -0.71000
V37         V  0.55648395  0.86656278  0.01802965     1.35200
V38         V  0.54594464  0.91536532  0.02269205     1.35200
C39         C  0.51186450  0.87793843  0.06513842     0.78400
C40         C  0.59118000  0.90340528  0.97582869     0.78500
C41         C  0.59429130  0.89582997  0.06284448     0.78300
C42         C  0.50672713  0.88572083  0.97919902     0.78300
O43         O  0.74987190  0.60843574  0.02040638    -0.70800
O44         O  0.76922547  0.67918170  0.96701057    -0.71100
O45         O  0.75354638  0.61785666  0.95728509    -0.70900
O46         O  0.76522790  0.66993831  0.03010224    -0.70900
O47         O  0.81606192  0.65777686  0.03105304    -0.70900
O48         O  0.80387840  0.60370223  0.95875406    -0.70900
O49         O  0.81972589  0.66560161  0.96733075    -0.70800
O50         O  0.80063926  0.59597217  0.02238431    -0.71000
V51         V  0.76049296  0.64361387  0.99374274     1.35200
V52         V  0.80914974  0.63102733  0.99484322     1.35200
C53         C  0.77197182  0.59013619  0.03055230     0.78400
C54         C  0.79772051  0.68431370  0.95776882     0.78500
C55         C  0.77648686  0.60164526  0.94567673     0.78300
C56         C  0.79246994  0.67293280  0.04303495     0.78300
O57         O  0.30133611  0.09738805  0.53750077    -0.70800
O58         O  0.31904778  0.02511328  0.48482688    -0.71100
O59         O  0.30519401  0.08672944  0.47424036    -0.70900
O60         O  0.31537371  0.03566901  0.54852093    -0.70900
O61         O  0.26442465  0.02453560  0.54763206    -0.70900
O62         O  0.25435101  0.07515652  0.47297425    -0.70900
O63         O  0.26815620  0.01355068  0.48434682    -0.70800
O64         O  0.25045611  0.08595006  0.53622061    -0.71000
V65         V  0.30928000  0.06094764  0.51127487     1.35200
V66         V  0.26035231  0.04999041  0.51031528     1.35200
C67         C  0.27281969  0.10382121  0.54608730     0.78400
C68         C  0.29645405  0.00745565  0.47498237     0.78500
C69         C  0.27815635  0.08943045  0.46071578     0.78300
C70         C  0.29146358  0.02199793  0.56123097     0.78300
O71         O  0.01161312  0.78316991  0.54993121    -0.70800
O72         O  0.07792436  0.76394033  0.48944872    -0.71100
O73         O  0.07547296  0.77308195  0.55335622    -0.70900
O74         O  0.01423949  0.77337014  0.48654309    -0.70900
O75         O  0.02244785  0.82425091  0.47910597    -0.70900
O76         O  0.08322631  0.82411098  0.54650827    -0.70900
O77         O  0.08569831  0.81500623  0.48313533    -0.70800
O78         O  0.01980034  0.83395886  0.54206926    -0.71000
V79         V  0.04503914  0.77431335  0.51975423     1.35200
V80         V  0.05269659  0.82328731  0.51288018     1.35200
C81         C  0.00418768  0.81210931  0.55593339     0.78400
C82         C  0.09254326  0.78654252  0.47535677     0.78500
C83         C  0.08947663  0.79857174  0.56170116     0.78300
C84         C  0.00796927  0.79880798  0.47131760     0.78300
O85         O  0.69074405  0.10311280  0.53025210    -0.70800
O86         O  0.68025681  0.15696186  0.45799085    -0.71100
O87         O  0.69656320  0.09535021  0.46706726    -0.70900
O88         O  0.67454929  0.16515195  0.52137350    -0.70900
O89         O  0.72476493  0.17934809  0.52223412    -0.70900
O90         O  0.74713223  0.10750486  0.47135373    -0.70900
O91         O  0.73101080  0.16892736  0.45956627    -0.70800
O92         O  0.74065788  0.11768857  0.53399596    -0.71000
V93         V  0.68647982  0.13043717  0.49425631     1.35200
V94         V  0.73490717  0.14316034  0.49678871     1.35200
C95         C  0.71762403  0.10076296  0.54417936     0.78400
C96         C  0.70387681  0.17185806  0.44619146     0.78500
C97         C  0.72565176  0.08924983  0.46035683     0.78300
C98         C  0.69594570  0.18457610  0.53047349     0.78300
O99         O  0.98452270  0.35328705  0.44670523    -0.70800
O100        O  0.92467894  0.37607132  0.51096356    -0.71100
O101        O  0.92182677  0.36695963  0.44716583    -0.70900
O102        O  0.98725264  0.36283235  0.50985904    -0.70900
O103        O  0.99707420  0.41348644  0.50288455    -0.70900
O104        O  0.93294000  0.41714249  0.43873543    -0.70900
O105        O  0.93389361  0.42667350  0.50263562    -0.70800
O106        O  0.99615789  0.40345786  0.43929378    -0.71000
V107        V  0.95469303  0.36582838  0.47848883     1.35200
V108        V  0.96477479  0.41427194  0.47098145     1.35200
C109        C  0.00081598  0.37421583  0.43216627     0.78400
C110        C  0.91954955  0.40502875  0.51839957     0.78500
C111        C  0.91683955  0.39253852  0.43160480     0.78300
C112        C  0.00295495  0.38756451  0.51748833     0.78300
O113        O  0.25117968  0.27152621  0.28241333    -0.70800
O114        O  0.22198763  0.33674862  0.22615019    -0.71100
O115        O  0.20325150  0.31460019  0.28313236    -0.70900
O116        O  0.27018708  0.29401609  0.22488558    -0.70900
O117        O  0.23953521  0.25889093  0.20199085    -0.70900
O118        O  0.17154134  0.28132689  0.25890894    -0.70900
O119        O  0.19191876  0.30206238  0.20167848    -0.70800
O120        O  0.21924973  0.23756271  0.25940306    -0.71000
V121        V  0.23612520  0.30347036  0.25371120     1.35200
V122        V  0.20618933  0.27053083  0.23103523     1.35200
C123        C  0.23959413  0.24356689  0.28095723     0.78400
C124        C  0.20234188  0.33035862  0.20404670     0.78500
C125        C  0.17574820  0.30206100  0.28058638     0.78300
C126        C  0.26605431  0.27367009  0.20286615     0.78300
O127        O  0.71676616  0.31321563  0.23565665    -0.70800
O128        O  0.73766504  0.38024069  0.17806189    -0.71100
O129        O  0.76025597  0.36027147  0.23463773    -0.70900
O130        O  0.69439276  0.33318412  0.17901690    -0.70900
O131        O  0.66039577  0.36435220  0.20355222    -0.70900
O132        O  0.72665988  0.39210287  0.25885906    -0.70900
O133        O  0.70345520  0.41156628  0.20209673    -0.70800
O134        O  0.68327642  0.34489742  0.26020032    -0.71000
V135        V  0.72661314  0.34733292  0.20733306     1.35200
V136        V  0.69409191  0.37763632  0.23070359     1.35200
C137        C  0.69673298  0.31771131  0.25800819     0.78400
C138        C  0.72383578  0.40725932  0.18003270     0.78500
C139        C  0.75474515  0.38054592  0.25642758     0.78300
C140        C  0.66623965  0.34437794  0.18155434     0.78300
O141        O  0.68068700  0.38654479  0.68941609    -0.70800
O142        O  0.70697189  0.45039414  0.74828702    -0.71100
O143        O  0.72734552  0.43038354  0.69009223    -0.70900
O144        O  0.66026968  0.40561435  0.74751873    -0.70900
O145        O  0.69254789  0.37058133  0.76890122    -0.70900
O146        O  0.75990908  0.39728473  0.71408355    -0.70900
O147        O  0.73805067  0.41562145  0.77183524    -0.70800
O148        O  0.71374310  0.35245268  0.71135552    -0.71000
V149        V  0.69443579  0.41766891  0.71933195     1.35200
V150        V  0.72547064  0.38472453  0.74108078     1.35200
C151        C  0.69299666  0.35877551  0.69012663     0.78400
C152        C  0.72653374  0.44375750  0.77049267     0.78500
C153        C  0.75498517  0.41754354  0.69208387     0.78300
C154        C  0.66492969  0.38333826  0.76772169     0.78300
O155        O  0.76633893  0.87461230  0.32143031    -0.77200
O156        O  0.78130145  0.80948127  0.25941081    -0.71100
O157        O  0.80762793  0.82484093  0.31577800    -0.70900
O158        O  0.74009697  0.85861671  0.26529096    -0.70900
O159        O  0.77360411  0.89089535  0.24195994    -0.70900
O160        O  0.84175039  0.85451658  0.28998839    -0.70900
O161        O  0.81378392  0.84137988  0.23420242    -0.70800
O162        O  0.80170358  0.90462649  0.29780371    -0.71000
V163        V  0.77451145  0.84248302  0.29010376     1.35200
V164        V  0.80708267  0.87227533  0.26656356     1.35200
C165        C  0.78146323  0.90088438  0.32002573     0.78400
C166        C  0.79956309  0.81471862  0.23573869     0.78500
C167        C  0.83633705  0.83339919  0.31102549     0.78300
C168        C  0.74532434  0.88023844  0.24476286     0.78300
O169        O  0.80136901  0.86288125  0.71103472    -0.70800
O170        O  0.73744479  0.88914554  0.77052360    -0.71100
O171        O  0.75463488  0.90732154  0.71116502    -0.70900
O172        O  0.78418166  0.84471483  0.76994310    -0.70900
O173        O  0.81775000  0.87899757  0.79009969    -0.70900
O174        O  0.78692856  0.94225379  0.73224099    -0.70900
O175        O  0.77097215  0.92292686  0.79146192    -0.70800
O176        O  0.83423759  0.89794117  0.73079774    -0.71000
V177        V  0.77002646  0.87672877  0.74105652     1.35200
V178        V  0.80186850  0.90991602  0.76063507     1.35200
C179        C  0.82877507  0.87588201  0.71077701     0.78400
C180        C  0.74363713  0.90979765  0.79178463     0.78500
C181        C  0.76566649  0.93549488  0.71175473     0.78300
C182        C  0.80567593  0.85122328  0.79021654     0.78300
O183        O  0.35056026  0.79202037  0.24866964    -0.70800
O184        O  0.28276305  0.76780024  0.30436487    -0.71100
O185        O  0.30443512  0.74675884  0.24775491    -0.70900
O186        O  0.32785578  0.81310879  0.30573964    -0.70900
O187        O  0.29465993  0.84565020  0.28176039    -0.70900
O188        O  0.27380337  0.78059030  0.22241533    -0.70900
O189        O  0.25013040  0.79955516  0.27881101    -0.70800
O190        O  0.31888487  0.82671593  0.22558939    -0.71000
V191        V  0.31594156  0.78059381  0.27606659     1.35200
V192        V  0.28505401  0.81245017  0.25254459     1.35200
C193        C  0.34633714  0.81376362  0.22798323     0.78400
C194        C  0.25487091  0.77953601  0.30113378     0.78500
C195        C  0.28454915  0.75231502  0.22548250     0.78300
C196        C  0.31422721  0.84034010  0.30422559     0.78300
O197        O  0.30245016  0.85685723  0.82583263    -0.70800
O198        O  0.23420851  0.83246706  0.77118835    -0.71100
O199        O  0.25809324  0.81033315  0.82675057    -0.70900
O200        O  0.27832385  0.87872395  0.77082176    -0.70900
O201        O  0.31026135  0.84737570  0.74394913    -0.70900
O202        O  0.29122674  0.77905903  0.80125147    -0.70900
O203        O  0.26661795  0.80041863  0.74569305    -0.70800
O204        O  0.33520448  0.82627232  0.79903087    -0.71000
V205        V  0.26889442  0.84389488  0.79820716     1.35200
V206        V  0.30021394  0.81380718  0.77305119     1.35200
C207        C  0.33064748  0.84626204  0.82128459     0.78400
C208        C  0.23898359  0.81290008  0.74856804     0.78500
C209        C  0.27117385  0.78304338  0.82373777     0.78300
C210        C  0.29739199  0.87472888  0.74760787     0.78300
O211        O  0.19623293  0.28336467  0.71466447    -0.70800
O212        O  0.17572500  0.35115005  0.77186172    -0.71100
O213        O  0.15429812  0.33266931  0.71434732    -0.70900
O214        O  0.21737371  0.30177412  0.77180435    -0.70900
O215        O  0.25358779  0.32987004  0.74701254    -0.70900
O216        O  0.18942573  0.36447761  0.69278002    -0.70900
O217        O  0.21306201  0.38032824  0.75033958    -0.70800
O218        O  0.22998534  0.31437122  0.68991077    -0.71000
V219        V  0.18651331  0.31788264  0.74268977     1.35200
V220        V  0.22080598  0.34677630  0.72048908     1.35200
C221        C  0.21668686  0.28728016  0.69259728     0.78400
C222        C  0.19143326  0.37706316  0.77143344     0.78500
C223        C  0.16101712  0.35388474  0.69382124     0.78300
C224        C  0.24642673  0.30979902  0.76852915     0.78300
C225        C  0.08214179  0.36352721  0.65024060    -0.27300
C226        C  0.09209505  0.37938556  0.62236635     0.06400
C227        C  0.12402645  0.38990036  0.61966792     0.26000
C228        C  0.14609808  0.38281762  0.64381685    -0.11700
C229        C  0.13663100  0.36503859  0.67080578    -0.25700
C230        C  0.10417444  0.35617886  0.67422747     0.36800
C231        C  0.06980718  0.38195480  0.59515866     0.06400
F232        F  0.13436246  0.40509523  0.59284007    -0.19500
H233        H  0.17093009  0.38996074  0.64065457     0.16200
F234        F  0.09383222  0.33953133  0.70018330    -0.23200
H235        H  0.05742646  0.35576826  0.65287086     0.18000
C236        C  0.05452834  0.35429658  0.58367798     0.26000
C237        C  0.03328999  0.35639126  0.55811231    -0.11700
C238        C  0.02690528  0.38604417  0.54339667    -0.25800
C239        C  0.04265352  0.41375513  0.55455010     0.36900
C240        C  0.06396504  0.41161088  0.58029667    -0.27400
F241        F  0.06055169  0.32507976  0.59689241    -0.19500
H242        H  0.02172030  0.33466046  0.54993568     0.16200
F243        F  0.03719350  0.44292476  0.54102621    -0.23200
H244        H  0.07558554  0.43314140  0.58892604     0.18000
C245        C  0.09246746  0.31448086  0.31629011    -0.27300
C246        C  0.09937885  0.33418271  0.34261180     0.06400
C247        C  0.13153534  0.34226806  0.34893129     0.26000
C248        C  0.15613247  0.33146832  0.32880329    -0.11700
C249        C  0.14928881  0.31208530  0.30218823    -0.25700
C250        C  0.11711116  0.30347608  0.29620881     0.36800
C251        C  0.07316156  0.34507859  0.36412009     0.06400
F252        F  0.13929585  0.35985753  0.37509027    -0.19500
H253        H  0.18067970  0.33819236  0.33422427     0.16200
F254        F  0.10930462  0.28493731  0.27072863    -0.23200
H255        H  0.06783609  0.30783769  0.31112485     0.18000
C256        C  0.06966931  0.37760362  0.37259946     0.26000
C257        C  0.04576786  0.38708140  0.39429320    -0.11700
C258        C  0.02492121  0.36434803  0.40786481    -0.25800
C259        C  0.02792415  0.33190675  0.39853554     0.36900
C260        C  0.05176249  0.32253109  0.37687955    -0.27400
F261        F  0.08918401  0.40024116  0.35970698    -0.19500
H262        H  0.04384692  0.41219486  0.40075412     0.16200
F263        F  0.00810725  0.30901795  0.41049971    -0.23200
H264        H  0.05399712  0.29738264  0.37060261     0.18000
C265        C  0.86220892  0.36635649  0.36447587    -0.27300
C266        C  0.85083072  0.39597459  0.35305290     0.06400
C267        C  0.86083438  0.42445834  0.36778581     0.26000
C268        C  0.88217759  0.42319680  0.39353793    -0.11700
C269        C  0.89349107  0.39351296  0.40513449    -0.25700
C270        C  0.88334285  0.36501800  0.39028086     0.36800
C271        C  0.82782704  0.39650330  0.32632757     0.06400
F272        F  0.85045939  0.45342145  0.35687193    -0.19500
H273        H  0.88983583  0.44545559  0.40443441     0.16200
F274        F  0.89437534  0.33589112  0.40009658    -0.23200
H275        H  0.85448618  0.34416063  0.35347234     0.18000
C276        C  0.83510922  0.38043461  0.29773538     0.26000
C277        C  0.81157352  0.37684222  0.27437550    -0.11700
C278        C  0.78036383  0.38910553  0.27916824    -0.25800
C279        C  0.77368651  0.40696636  0.30700791     0.36900
C280        C  0.79735112  0.41055992  0.33039939    -0.27400
F281        F  0.86475148  0.36745714  0.29280695    -0.19500
H282        H  0.81753577  0.36342476  0.25297951     0.16200
F283        F  0.74396630  0.41952206  0.31247830    -0.23200
H284        H  0.79140407  0.42297353  0.35239679     0.18000
C285        C  0.85876960  0.44651003  0.57280688    -0.27300
C286        C  0.85533227  0.42349898  0.59721548     0.06400
C287        C  0.87414629  0.39535690  0.59603205     0.26000
C288        C  0.89508526  0.38996197  0.57046080    -0.11700
C289        C  0.89811955  0.41257648  0.54569472    -0.25700
C290        C  0.88031720  0.44134522  0.54741637     0.36800
C291        C  0.83026689  0.42730533  0.62229876     0.06400
F292        F  0.87116370  0.37227152  0.61878578    -0.19500
H293        H  0.90882940  0.36778335  0.56990347     0.16200
F294        F  0.88271834  0.46378780  0.52399086    -0.23200
H295        H  0.84443176  0.46830345  0.57324954     0.18000
C296        C  0.83775512  0.42336305  0.65487456     0.26000
C297        C  0.81315017  0.42169658  0.67769572    -0.11700
C298        C  0.78070874  0.42447220  0.66857545    -0.25800
C299        C  0.77333615  0.43035851  0.63624955     0.36900
C300        C  0.79795801  0.43172771  0.61337829    -0.27400
F301        F  0.86881822  0.42033763  0.66451444    -0.19500
H302        H  0.81941784  0.41742238  0.70248463     0.16200
F303        F  0.74228454  0.43230716  0.62635575    -0.23200
H304        H  0.79164734  0.43453578  0.58839778     0.18000
C305        C  0.70204418  0.26477458  0.57181028    -0.27300
C306        C  0.67657402  0.26306318  0.59375135     0.06400
C307        C  0.65559334  0.23674465  0.59282546     0.26000
C308        C  0.66111537  0.21173541  0.57113997    -0.11700
C309        C  0.68787082  0.21254379  0.55055327    -0.25700
C310        C  0.70779335  0.23974600  0.55045484     0.36800
C311        C  0.67450416  0.28746173  0.61918981     0.06400
F312        F  0.63027423  0.23496510  0.61329157    -0.19500
H313        H  0.64528081  0.19116804  0.57135426     0.16200
F314        F  0.73312999  0.24200367  0.53004081    -0.23200
H315        H  0.71838399  0.28495673  0.57216975     0.18000
C316        C  0.67880224  0.27849397  0.65132157     0.26000
C317        C  0.68388910  0.30193459  0.67459260    -0.11700
C318        C  0.68408106  0.33456182  0.66623089    -0.25800
C319        C  0.67777695  0.34360467  0.63443227     0.36900
C320        C  0.67335808  0.32013554  0.61105942    -0.27400
F321        F  0.68040018  0.24705395  0.65981009    -0.19500
H322        H  0.68849812  0.29457782  0.69902629     0.16200
F323        F  0.67821598  0.37495765  0.62551785    -0.23200
H324        H  0.67036291  0.32737876  0.58634495     0.18000
C325        C  0.70380012  0.24067766  0.30533053    -0.27300
C326        C  0.68734832  0.24912545  0.33332833     0.06400
C327        C  0.67064350  0.27838096  0.33496228     0.26000
C328        C  0.67222485  0.29994840  0.30945417    -0.11700
C329        C  0.69051796  0.29253682  0.28207015    -0.25700
C330        C  0.70520311  0.26205582  0.27967188     0.36800
C331        C  0.69114156  0.22923243  0.36200719     0.06400
F332        F  0.65462215  0.28690285  0.36199807    -0.19500
H333        H  0.66046621  0.32309518  0.31185567     0.16200
F334        F  0.72209742  0.25338146  0.25322150    -0.23200
H335        H  0.71661629  0.21799651  0.30388628     0.18000
C336        C  0.66620919  0.20953357  0.37284945     0.26000
C337        C  0.67052143  0.19094026  0.40033415    -0.11700
C338        C  0.69970110  0.19194322  0.41738244    -0.25800
C339        C  0.72451314  0.21211313  0.40646761     0.36900
C340        C  0.72018580  0.23046199  0.37888765    -0.27400
F341        F  0.63794763  0.20806849  0.35668544    -0.19500
H342        H  0.65105245  0.17562503  0.40816642     0.16200
F343        F  0.75278256  0.21448330  0.42251195    -0.23200
H344        H  0.73944211  0.24591751  0.37075533     0.18000
C345        C  0.72036223  0.02057425  0.40150331    -0.27300
C346        C  0.75134826  0.00713686  0.40364510     0.06400
C347        C  0.77399703  0.02120420  0.42422864     0.26000
C348        C  0.76558736  0.04815297  0.44233797    -0.11700
C349        C  0.73442258  0.06130275  0.44048997    -0.25700
C350        C  0.71184310  0.04727174  0.41984399     0.36800
C351        C  0.75994309  0.97898722  0.38374829     0.06400
F352        F  0.80397964  0.00846812  0.42740531    -0.19500
H353        H  0.78331732  0.05840638  0.45825295     0.16200
F354        F  0.68173984  0.05972600  0.41681721    -0.23200
H355        H  0.70278662  0.01058186  0.38526347     0.18000
C356        C  0.73971363  0.95204651  0.38236601     0.26000
C357        C  0.74729507  0.92632406  0.36224811    -0.11700
C358        C  0.77504563  0.92706464  0.34303783    -0.25800
C359        C  0.79557793  0.95381599  0.34490441     0.36900
C360        C  0.78800847  0.97945450  0.36506607    -0.27400
F361        F  0.71265519  0.95054697  0.40053728    -0.19500
H362        H  0.73105836  0.90609779  0.36123585     0.16200
F363        F  0.82286613  0.95544330  0.32708762    -0.23200
H364        H  0.80374303  0.00009733  0.36548974     0.18000
C365        C  0.75659863  0.05144182  0.60987710    -0.27300
C366        C  0.73154953  0.03067310  0.61822638     0.06400
C367        C  0.70158453  0.03368575  0.60309755     0.26000
C368        C  0.69693112  0.05720570  0.57967491    -0.11700
C369        C  0.72220406  0.07777658  0.57077162    -0.25700
C370        C  0.75216547  0.07468383  0.58623898     0.36800
C371        C  0.73727962  0.00597626  0.64275445     0.06400
F372        F  0.67686133  0.01406128  0.61113019    -0.19500
H373        H  0.67366131  0.05893751  0.56813510     0.16200
F374        F  0.77740390  0.09365345  0.57827182    -0.23200
H375        H  0.77987187  0.04922219  0.62136306     0.18000
C376        C  0.73684346  0.97322745  0.63484690     0.26000
C377        C  0.74519896  0.95023871  0.65778007    -0.11700
C378        C  0.75447014  0.95970601  0.68864216    -0.25800
C379        C  0.75407744  0.99245426  0.69668188     0.36900
C380        C  0.74555409  0.01537085  0.67382430    -0.27400
F381        F  0.72990979  0.96365619  0.60461419    -0.19500
H382        H  0.74557930  0.92511457  0.65108684     0.16200
F383        F  0.76180768  0.00228351  0.72662485    -0.23200
H384        H  0.74583992  0.04057925  0.68019063     0.18000
C385        C  0.21115394  0.75227523  0.37588329    -0.27300
C386        C  0.18053696  0.76547982  0.37056756     0.06400
C387        C  0.17339643  0.77936734  0.34078073     0.26000
C388        C  0.19732122  0.78223406  0.31756218    -0.11700
C389        C  0.22875223  0.77129218  0.32366376    -0.25700
C390        C  0.23518756  0.75506896  0.35261885     0.36800
C391        C  0.15810927  0.76974699  0.39756678     0.06400
F392        F  0.14366112  0.79165065  0.33482238    -0.19500
H393        H  0.19154426  0.79429047  0.29532427     0.16200
F394        F  0.26512348  0.74379490  0.35943860    -0.23200
H395        H  0.21703712  0.74168929  0.39882759     0.18000
C396        C  0.14599155  0.74365970  0.41505657     0.26000
C397        C  0.12493094  0.74905508  0.44075814    -0.11700
C398        C  0.11614987  0.78054098  0.44948631    -0.25800
C399        C  0.12899130  0.80653307  0.43206540     0.36900
C400        C  0.14963180  0.80104326  0.40645129    -0.27400
F401        F  0.15392590  0.71311326  0.40683211    -0.19500
H402        H  0.11532161  0.72866403  0.45362138     0.16200
F403        F  0.12136006  0.83743048  0.43928469    -0.23200
H404        H  0.15922994  0.82141577  0.39350294     0.18000
C405        C  0.16599180  0.82345226  0.69578345    -0.27300
C406        C  0.17120707  0.79937667  0.67292517     0.06400
C407        C  0.19699331  0.77780690  0.67683210     0.26000
C408        C  0.21807804  0.78131034  0.70254656    -0.11700
C409        C  0.21370996  0.80628361  0.72475492    -0.25700
C410        C  0.18691251  0.82688517  0.72159130     0.36800
C411        C  0.15101039  0.79854406  0.64399264     0.06400
F412        F  0.20293796  0.75461963  0.65477890    -0.19500
H413        H  0.23852326  0.76517647  0.70440270     0.16200
F414        F  0.18186678  0.85150664  0.74227283    -0.23200
H415        H  0.14611279  0.84017989  0.69312112     0.18000
C416        C  0.13445612  0.77064694  0.63522687     0.26000
C417        C  0.11505018  0.77066473  0.60800627    -0.11700
C418        C  0.11178123  0.79849937  0.58915796    -0.25800
C419        C  0.12885277  0.82627921  0.59777194     0.36900
C420        C  0.14818761  0.82620830  0.62501170    -0.27400
F421        F  0.13620339  0.74375689  0.65353630    -0.19500
H422        H  0.10206456  0.74900785  0.60206653     0.16200
F423        F  0.12682774  0.85358010  0.58010016    -0.23200
H424        H  0.16109201  0.84782262  0.63132294     0.18000
C425        C  0.87216815  0.83232107  0.64340473    -0.27300
C426        C  0.90266791  0.84660505  0.64453201     0.06400
C427        C  0.90864398  0.87038363  0.66761359     0.26000
C428        C  0.88448539  0.87976190  0.68889959    -0.11700
C429        C  0.85392097  0.86555830  0.68782078    -0.25700
C430        C  0.84801201  0.84152477  0.66488379     0.36800
C431        C  0.92798662  0.83724705  0.62128424     0.06400
F432        F  0.93807304  0.88418117  0.67003534    -0.19500
H433        H  0.88984780  0.89810767  0.70639693     0.16200
F434        F  0.81893646  0.82694422  0.66299558    -0.23200
H435        H  0.86688278  0.81428468  0.62556892     0.18000
C436        C  0.93554662  0.80479746  0.61538558     0.26000
C437        C  0.96026072  0.79665505  0.59404254    -0.11700
C438        C  0.97787383  0.82068111  0.57831123    -0.25800
C439        C  0.96991220  0.85314809  0.58401773     0.36900
C440        C  0.94513279  0.86116937  0.60506180    -0.27400
F441        F  0.91971696  0.78098528  0.63091624    -0.19500
H442        H  0.96579148  0.77153747  0.59006526     0.16200
F443        F  0.98602827  0.87737436  0.56941536    -0.23200
H444        H  0.93930330  0.88628275  0.60868773     0.18000
C445        C  0.94644843  0.77188256  0.41019900    -0.27300
C446        C  0.93877336  0.80122337  0.39558623     0.06400
C447        C  0.95369602  0.82948507  0.40606841     0.26000
C448        C  0.97634349  0.82831356  0.43045391    -0.11700
C449        C  0.98428768  0.79904553  0.44515254    -0.25700
C450        C  0.96915189  0.77066851  0.43479049     0.36800
C451        C  0.91384833  0.80311313  0.37074476     0.06400
F452        F  0.94549076  0.85846980  0.39349643    -0.19500
H453        H  0.98731144  0.85053221  0.43814025     0.16200
F454        F  0.97611631  0.74182882  0.44834857    -0.23200
H455        H  0.93484526  0.74997531  0.40253546     0.18000
C456        C  0.92006196  0.81933814  0.34199281     0.26000
C457        C  0.89476062  0.82784356  0.32191008    -0.11700
C458        C  0.86298083  0.81983576  0.32995303    -0.25800
C459        C  0.85723002  0.80055612  0.35706482     0.36900
C460        C  0.88261033  0.79243473  0.37741252    -0.27400
F461        F  0.95044365  0.82831348  0.33416863    -0.19500
H462        H  0.89997792  0.84176300  0.30064509     0.16200
F463        F  0.82702265  0.79109473  0.36496154    -0.23200
H464        H  0.87756058  0.77953456  0.39935355     0.18000
C465        C  0.29605517  0.14620375  0.39231833    -0.27300
C466        C  0.26556804  0.14956936  0.37843258     0.06400
C467        C  0.23972764  0.13148185  0.39025334     0.26000
C468        C  0.24412605  0.11147492  0.41669647    -0.11700
C469        C  0.27439672  0.10899628  0.43150720    -0.25700
C470        C  0.30061115  0.12594237  0.41849144     0.36800
C471        C  0.26056778  0.17323249  0.35274680     0.06400
F472        F  0.20996815  0.13423798  0.37712249    -0.19500
H473        H  0.22364583  0.09841157  0.42594399     0.16200
F474        F  0.33053722  0.12350321  0.43128131    -0.23200
H475        H  0.31629040  0.15965437  0.38306313     0.18000
C476        C  0.26795455  0.20568263  0.35786387     0.26000
C477        C  0.26208783  0.22829342  0.33393352    -0.11700
C478        C  0.24850594  0.21893140  0.30468430    -0.25800
C479        C  0.24166039  0.18628494  0.29941674     0.36900
C480        C  0.24768211  0.16366536  0.32334550    -0.27400
F481        F  0.27956164  0.21567043  0.38649671    -0.19500
H482        H  0.26719218  0.25330855  0.33871637     0.16200
F483        F  0.22907246  0.17619849  0.27125198    -0.23200
H484        H  0.24214709  0.13865547  0.31902370     0.18000
C485        C  0.24649637  0.24061752  0.62060410    -0.27300
C486        C  0.24248214  0.20887526  0.63107655     0.06400
C487        C  0.23036178  0.20309677  0.66192290     0.26000
C488        C  0.22167086  0.22875988  0.68162295    -0.11700
C489        C  0.22536004  0.26056494  0.67108572    -0.25700
C490        C  0.23807057  0.26632987  0.64041137     0.36800
C491        C  0.25043104  0.18195377  0.60948498     0.06400
F492        F  0.22754069  0.17265559  0.67320288    -0.19500
H493        H  0.21252645  0.22375419  0.70537680     0.16200
F494        F  0.24161292  0.29672702  0.62925188    -0.23200
H495        H  0.25570020  0.24545148  0.59683582     0.18000
C496        C  0.22716974  0.15882767  0.60202666     0.26000
C497        C  0.23466472  0.13372508  0.58122853    -0.11700
C498        C  0.26551631  0.13106045  0.56759558    -0.25800
C499        C  0.28885560  0.15425462  0.57515703     0.36900
C500        C  0.28119108  0.17959563  0.59576274    -0.27400
F501        F  0.19696329  0.16090587  0.61431561    -0.19500
H502        H  0.21623466  0.11623395  0.57591655     0.16200
F503        F  0.31895032  0.15266743  0.56256095    -0.23200
H504        H  0.29937682  0.19728453  0.60128089     0.18000
C505        C  0.27188690  0.97248661  0.63463457    -0.27300
C506        C  0.30216326  0.96984512  0.64913280     0.06400
C507        C  0.32878445  0.98497378  0.63519119     0.26000
C508        C  0.32513400  0.00209393  0.60665822    -0.11700
C509        C  0.29493360  0.00408108  0.59154343    -0.25700
C510        C  0.26818827  0.98934239  0.60606484     0.36800
C511        C  0.30585214  0.94865907  0.67704309     0.06400
F512        F  0.35821591  0.98309680  0.64914815    -0.19500
H513        H  0.34602417  0.01354768  0.59626758     0.16200
F514        F  0.23851615  0.99069998  0.59255942    -0.23200
H515        H  0.25122290  0.96057684  0.64500147     0.18000
C516        C  0.28747240  0.95383851  0.70471915     0.26000
C517        C  0.28627513  0.93031533  0.72843980    -0.11700
C518        C  0.30312312  0.90114969  0.72474185    -0.25800
C519        C  0.32317596  0.89696591  0.69786185     0.36900
C520        C  0.32450295  0.92066341  0.67426490    -0.27400
F521        F  0.26973765  0.98109839  0.70817696    -0.19500
H522        H  0.27099079  0.93441377  0.74905169     0.16200
F523        F  0.34026709  0.86945246  0.69349472    -0.23200
H524        H  0.33865867  0.91635041  0.65290393     0.18000
C525        C  0.31742329  0.92044949  0.34633457    -0.27300
C526        C  0.31683545  0.91068632  0.37846054     0.06400
C527        C  0.31836692  0.87781208  0.38586400     0.26000
C528        C  0.31984766  0.85503172  0.36140225    -0.11700
C529        C  0.31888019  0.86468164  0.32925677    -0.25700
C530        C  0.31803682  0.89763186  0.32183319     0.36800
C531        C  0.31257757  0.93471499  0.40405383     0.06400
F532        F  0.31768155  0.86777495  0.41675425    -0.19500
H533        H  0.31994449  0.82976052  0.36758227     0.16200
F534        F  0.31713962  0.90769690  0.29094746    -0.23200
H535        H  0.31607859  0.94571713  0.34026024     0.18000
C536        C  0.33498176  0.95943028  0.40836831     0.26000
C537        C  0.33019512  0.98233539  0.43234415    -0.11700
C538        C  0.30264682  0.98134292  0.45188176    -0.25800
C539        C  0.28021477  0.95652616  0.44744856     0.36900
C540        C  0.28536183  0.93331771  0.42388647    -0.27400
F541        F  0.36147105  0.96134465  0.38943785    -0.19500
H542        H  0.34760384  0.00140806  0.43501395     0.16200
F543        F  0.25326706  0.95469543  0.46575363    -0.23200
H544        H  0.26772810  0.91453317  0.42064442     0.18000
C545        C  0.72656963  0.52475725  0.07400158    -0.27300
C546        C  0.75124646  0.51026227  0.09190894     0.06400
C547        C  0.78283540  0.52192273  0.08910317     0.26000
C548        C  0.78941291  0.54771176  0.06885474    -0.11700
C549        C  0.76461029  0.56260812  0.05142195    -0.25700
C550        C  0.73303154  0.55088667  0.05416856     0.36800
C551        C  0.74376746  0.48349799  0.11390765     0.06400
F552        F  0.80717766  0.50910008  0.10668124    -0.19500
H553        H  0.81388588  0.55641663  0.06729279     0.16200
F554        F  0.70842187  0.56433146  0.03744313    -0.23200
H555        H  0.70218840  0.51577851  0.07532370     0.18000
C556        C  0.71768003  0.48573695  0.13526206     0.26000
C557        C  0.71137369  0.46078174  0.15655713    -0.11700
C558        C  0.73091372  0.43316354  0.15704900    -0.25800
C559        C  0.75682840  0.43075829  0.13544322     0.36900
C560        C  0.76303215  0.45569576  0.11401761    -0.27400
F561        F  0.69879580  0.51242596  0.13623466    -0.19500
H562        H  0.69118860  0.46320161  0.17281167     0.16200
F563        F  0.77647930  0.40461130  0.13522372    -0.23200
H564        H  0.78293663  0.45325720  0.09743115     0.18000
C565        C  0.77350343  0.73042525  0.11060190    -0.27300
C566        C  0.80266636  0.73067969  0.12723058     0.06400
C567        C  0.82885053  0.71258697  0.11593522     0.26000
C568        C  0.82560741  0.69399338  0.08830039    -0.11700
C569        C  0.79622326  0.69340805  0.07161933    -0.25700
C570        C  0.77021028  0.71211373  0.08296820     0.36800
C571        C  0.80524553  0.75024058  0.15625009     0.06400
F572        F  0.85723848  0.71249761  0.13196374    -0.19500
H573        H  0.84595175  0.67983099  0.08016350     0.16200
F574        F  0.74151984  0.71285834  0.06747450    -0.23200
H575        H  0.75326335  0.74459179  0.11904408     0.18000
C576        C  0.82159584  0.77953364  0.15547259     0.26000
C577        C  0.82070729  0.79977632  0.18200162    -0.11700
C578        C  0.80331676  0.79116242  0.20960816    -0.25800
C579        C  0.78793516  0.76112839  0.21064780     0.36900
C580        C  0.78880559  0.74095745  0.18400484    -0.27400
F581        F  0.83696451  0.78925854  0.12849690    -0.19500
H582        H  0.83270233  0.82274318  0.18043970     0.16200
F583        F  0.77131073  0.75157687  0.23692381    -0.23200
H584        H  0.77601424  0.71837238  0.18469951     0.18000
C585        C  0.84114898  0.74031141  0.90075674    -0.27300
C586        C  0.81553047  0.75958059  0.89037136     0.06400
C587        C  0.78470110  0.75520297  0.90318183     0.26000
C588        C  0.77936171  0.73121025  0.92573097    -0.11700
C589        C  0.80469407  0.71112383  0.93577270    -0.25700
C590        C  0.83589893  0.71623232  0.92346637     0.36800
C591        C  0.81988888  0.78249625  0.86418547     0.06400
F592        F  0.75955367  0.77347227  0.89298266    -0.19500
H593        H  0.75515645  0.72791914  0.93476765     0.16200
F594        F  0.86112619  0.69754605  0.93262510    -0.23200
H595        H  0.86498544  0.74348625  0.89074361     0.18000
C596        C  0.82441118  0.81519581  0.87052980     0.26000
C597        C  0.82223561  0.83754328  0.84567185    -0.11700
C598        C  0.81477132  0.82740277  0.81453190    -0.25800
C599        C  0.81199667  0.79442200  0.80806254     0.36900
C600        C  0.81470800  0.77213692  0.83280161    -0.27400
F601        F  0.82889292  0.82556090  0.90095821    -0.19500
H602        H  0.82416341  0.86287432  0.85114939     0.16200
F603        F  0.80536335  0.78385296  0.77809993    -0.23200
H604        H  0.81099226  0.74690665  0.82780711     0.18000
C605        C  0.73665860  0.56140735  0.87491472    -0.27300
C606        C  0.75849460  0.53648777  0.86814139     0.06400
C607        C  0.78725298  0.53437969  0.88582685     0.26000
C608        C  0.79331290  0.55606628  0.91055471    -0.11700
C609        C  0.77096042  0.58033258  0.91800500    -0.25700
C610        C  0.74275529  0.58316908  0.89951276     0.36800
C611        C  0.75083168  0.51275047  0.84287537     0.06400
F612        F  0.80969987  0.51158840  0.87901697    -0.19500
H613        H  0.81530657  0.55352181  0.92421555     0.16200
F614        F  0.72095836  0.60691425  0.90514485    -0.23200
H615        H  0.71445778  0.56365751  0.86153153     0.18000
C616        C  0.75395271  0.47960546  0.84868561     0.26000
C617        C  0.74664156  0.45750357  0.82475063    -0.11700
C618        C  0.73517988  0.46785325  0.79487346    -0.25800
C619        C  0.73128604  0.50097327  0.78924288     0.36900
C620        C  0.73928237  0.52315322  0.81299772    -0.27400
F621        F  0.76283805  0.46844822  0.87790116    -0.19500
H622        H  0.74913545  0.43213064  0.82994084     0.16200
F623        F  0.72018147  0.51199393  0.76072784    -0.23200
H624        H  0.73656127  0.54854315  0.80800213     0.18000
C625        C  0.64587296  0.87063631  0.13260824    -0.27300
C626        C  0.65275734  0.90030330  0.14670798     0.06400
C627        C  0.64164348  0.92872208  0.13234338     0.26000
C628        C  0.62335068  0.92726246  0.10439899    -0.11700
C629        C  0.61619050  0.89746612  0.09038933    -0.25700
C630        C  0.62776190  0.86909558  0.10475264     0.36800
C631        C  0.67328431  0.90089177  0.17526897     0.06400
F632        F  0.64789180  0.95771201  0.14569918    -0.19500
H633        H  0.61444703  0.94939891  0.09397272     0.16200
F634        F  0.62094043  0.83973373  0.09251139    -0.23200
H635        H  0.65480639  0.84853630  0.14311751     0.18000
C636        C  0.66615130  0.88121993  0.20158998     0.26000
C637        C  0.68902104  0.87641761  0.22543162    -0.11700
C638        C  0.71937668  0.89098632  0.22325406    -0.25800
C639        C  0.72543717  0.91274318  0.19817123     0.36900
C640        C  0.70243929  0.91760740  0.17437814    -0.27400
F641        F  0.63772313  0.86536178  0.20335289    -0.19500
H642        H  0.68354396  0.85987707  0.24466682     0.16200
F643        F  0.75423401  0.92773146  0.19538776    -0.23200
H644        H  0.70828860  0.93275344  0.15413208     0.18000
C645        C  0.40903263  0.86413602  0.18653406    -0.27300
C646        C  0.42110254  0.84245070  0.16365786     0.06400
C647        C  0.40897736  0.81090588  0.16302726     0.26000
C648        C  0.38521706  0.80149442  0.18471801    -0.11700
C649        C  0.37265043  0.82349008  0.20677667    -0.25700
C650        C  0.38469251  0.85486868  0.20769948     0.36800
C651        C  0.44558920  0.85291874  0.13999884     0.06400
F652        F  0.41908603  0.78954918  0.14061149    -0.19500
H653        H  0.37585024  0.77729120  0.18363741     0.16200
F654        F  0.37315639  0.87636416  0.22929816    -0.23200
H655        H  0.41837340  0.88831443  0.18793499     0.18000
C656        C  0.44183591  0.88186224  0.12289646     0.26000
C657        C  0.46397438  0.89035223  0.09916687    -0.11700
C658        C  0.48990342  0.86996933  0.09173127    -0.25800
C659        C  0.49422401  0.84151596  0.10948652     0.36900
C660        C  0.47238858  0.83329040  0.13349727    -0.27400
F661        F  0.41598616  0.90124789  0.12802912    -0.19500
H662        H  0.46019924  0.91236658  0.08584113     0.16200
F663        F  0.51963633  0.82166776  0.10381513    -0.23200
H664        H  0.47629684  0.81133963  0.14688893     0.18000
C665        C  0.41409128  0.85570452  0.85583396    -0.27300
C666        C  0.40719770  0.87159568  0.88460984     0.06400
C667        C  0.37555562  0.88180103  0.89094238     0.26000
C668        C  0.35091861  0.87437207  0.86964382    -0.11700
C669        C  0.35743678  0.85664971  0.84179382    -0.25700
C670        C  0.38949650  0.84824934  0.83451678     0.36800
C671        C  0.43269454  0.87550491  0.90872436     0.06400
F672        F  0.36812932  0.89733629  0.91852343    -0.19500
H673        H  0.32652944  0.88151432  0.87558235     0.16200
F674        F  0.39712801  0.83241482  0.80715204    -0.23200
H675        H  0.43852890  0.84842461  0.85022221     0.18000
C676        C  0.45107882  0.84885638  0.91852250     0.26000
C677        C  0.47501165  0.85241893  0.94149254    -0.11700
C678        C  0.48091720  0.88253029  0.95528692    -0.25800
C679        C  0.46207101  0.90913201  0.94586221     0.36900
C680        C  0.43828247  0.90557048  0.92262730    -0.27400
F681        F  0.44536163  0.81918224  0.90644779    -0.19500
H682        H  0.48886184  0.83147824  0.94853779     0.16200
F683        F  0.46647744  0.93855766  0.95901845    -0.23200
H684        H  0.42430020  0.92634689  0.91535232     0.18000
C685        C  0.63911549  0.94469556  0.90993048    -0.27300
C686        C  0.65545736  0.91834722  0.89667132     0.06400
C687        C  0.65161691  0.88780581  0.91012265     0.26000
C688        C  0.63114407  0.88348232  0.93613386    -0.11700
C689        C  0.61400076  0.90953666  0.94928143    -0.25700
C690        C  0.61839695  0.94040427  0.93608826     0.36800
C691        C  0.67636533  0.92200864  0.86852138     0.06400
F692        F  0.66766939  0.86209473  0.89792285    -0.19500
H693        H  0.62852246  0.85949395  0.94578895     0.16200
F694        F  0.60236631  0.96624757  0.94797017    -0.23200
H695        H  0.64205640  0.96841374  0.89971323     0.18000
C696        C  0.66588598  0.91125079  0.83853684     0.26000
C697        C  0.68759289  0.90882160  0.81312125    -0.11700
C698        C  0.72006238  0.91704983  0.81728267    -0.25800
C699        C  0.73013748  0.92926862  0.84705617     0.36900
C700        C  0.70833182  0.93167954  0.87245172    -0.27400
F701        F  0.63500500  0.90165666  0.83435273    -0.19500
H702        H  0.67923728  0.89943755  0.79047225     0.16200
F703        F  0.76145543  0.93667411  0.85238918    -0.23200
H704        H  0.71677173  0.93946448  0.89567517     0.18000
C705        C  0.20692332  0.65247999  0.12856467    -0.27300
C706        C  0.23894635  0.65371566  0.13942539     0.06400
C707        C  0.26168726  0.63238565  0.12636911     0.26000
C708        C  0.25285342  0.61117717  0.10221623    -0.11700
C709        C  0.22124034  0.61080408  0.09019328    -0.25700
C710        C  0.19805185  0.63126158  0.10412973     0.36800
C711        C  0.24924986  0.67860052  0.16258785     0.06400
F712        F  0.29298843  0.63328405  0.13558760    -0.19500
H713        H  0.27128715  0.59571356  0.09215671     0.16200
F714        F  0.16714887  0.63152028  0.09364216    -0.23200
H715        H  0.18890086  0.66843690  0.13860329     0.18000
C716        C  0.24190122  0.71111534  0.15712693     0.26000
C717        C  0.25368350  0.73473939  0.17757922    -0.11700
C718        C  0.27319258  0.72660211  0.20385293    -0.25800
C719        C  0.28033978  0.69398948  0.20954225     0.36900
C720        C  0.26835266  0.67029301  0.18910917    -0.27400
F721        F  0.22432938  0.72024268  0.13129320    -0.19500
H722        H  0.24771768  0.75958335  0.17256913     0.16200
F723        F  0.29863802  0.68487553  0.23488270    -0.23200
H724        H  0.27410966  0.64536085  0.19393004     0.18000
C725        C  0.15752236  0.45068494  0.10796214    -0.27300
C726        C  0.18263415  0.42825476  0.11067730     0.06400
C727        C  0.20984026  0.43085370  0.09106768     0.26000
C728        C  0.21241055  0.45627823  0.06969515    -0.11700
C729        C  0.18786836  0.47952073  0.06742354    -0.25700
C730        C  0.15989013  0.47610310  0.08618450     0.36800
C731        C  0.18197940  0.40332311  0.13539723     0.06400
F732        F  0.23461766  0.40961042  0.09371890    -0.19500
H733        H  0.23409083  0.45814401  0.05540297     0.16200
F734        F  0.13550238  0.49784307  0.08446545    -0.23200
H735        H  0.13643755  0.44877879  0.12310614     0.18000
C736        C  0.18727550  0.41156271  0.16746172     0.26000
C737        C  0.19281179  0.38754757  0.19008083    -0.11700
C738        C  0.19274710  0.35513681  0.18096943    -0.25800
C739        C  0.18587916  0.34690930  0.14909406     0.36900
C740        C  0.18078596  0.37097274  0.12643025    -0.27400
F741        F  0.18918231  0.44281649  0.17640549    -0.19500
H742        H  0.19802401  0.39428630  0.21454272     0.16200
F743        F  0.18635353  0.31581578  0.13937920    -0.23200
H744        H  0.17721883  0.36446774  0.10160943     0.18000
C745        C  0.21546109  0.47187618  0.88951186    -0.27300
C746        C  0.18496235  0.46634480  0.87638513     0.06400
C747        C  0.15764707  0.47887329  0.89208324     0.26000
C748        C  0.16112607  0.49722434  0.91999607    -0.11700
C749        C  0.19182322  0.50308825  0.93284637    -0.25700
C750        C  0.21899043  0.48996720  0.91725842     0.36800
C751        C  0.18247581  0.44649002  0.84702119     0.06400
F752        F  0.12772331  0.47389493  0.88015967    -0.19500
H753        H  0.13980997  0.50685062  0.93152381     0.16200
F754        F  0.24920565  0.49455406  0.92863874    -0.23200
H755        H  0.23678904  0.46177198  0.87839062     0.18000
C756        C  0.20304929  0.45208944  0.82084514     0.26000
C757        C  0.20472873  0.43016312  0.79564333    -0.11700
C758        C  0.18578090  0.40232218  0.79582564    -0.25800
C759        C  0.16337007  0.39802269  0.82082225     0.36900
C760        C  0.16195513  0.41984119  0.84623355    -0.27400
F761        F  0.22222263  0.47837823  0.82005916    -0.19500
H762        H  0.22173611  0.43450054  0.77648465     0.16200
F763        F  0.14375280  0.37207911  0.82153431    -0.23200
H764        H  0.14592112  0.41499896  0.86608340     0.18000
C765        C  0.26275771  0.66726128  0.93004057    -0.27300
C766        C  0.23814280  0.68220065  0.91260345     0.06400
C767        C  0.20609392  0.67272900  0.91739372     0.26000
C768        C  0.19894454  0.64811503  0.93902288    -0.11700
C769        C  0.22366477  0.63267102  0.95616188    -0.25700
C770        C  0.25568361  0.64288797  0.95182121     0.36800
C771        C  0.24622641  0.70776648  0.88959906     0.06400
F772        F  0.18189375  0.68665909  0.90047379    -0.19500
H773        H  0.17415871  0.64067411  0.94182738     0.16200
F774        F  0.28022884  0.62948427  0.96867894    -0.23200
H775        H  0.28752090  0.67466733  0.92686934     0.18000
C776        C  0.23542591  0.73929222  0.89462097     0.26000
C777        C  0.24373888  0.76352864  0.87310976    -0.11700
C778        C  0.26295883  0.75677686  0.84617310    -0.25800
C779        C  0.27378366  0.72503532  0.84122139     0.36900
C780        C  0.26555709  0.70082781  0.86292951    -0.27400
F781        F  0.21748229  0.74674600  0.92076222    -0.19500
H782        H  0.23523385  0.78771343  0.87771504     0.16200
F783        F  0.29199224  0.71724208  0.81536455    -0.23200
H784        H  0.27407405  0.67654108  0.85884224     0.18000
C785        C  0.37266306  0.24417967  0.08543110    -0.27300
C786        C  0.35106951  0.26867491  0.09416976     0.06400
C787        C  0.34924018  0.29663820  0.07553481     0.26000
C788        C  0.36970389  0.30068249  0.04941205    -0.11700
C789        C  0.39248381  0.27695255  0.04129048    -0.25700
C790        C  0.39332360  0.24821759  0.05915976     0.36800
C791        C  0.33184482  0.26641435  0.12380690     0.06400
F792        F  0.32792497  0.32031464  0.08298265    -0.19500
H793        H  0.36811470  0.32282974  0.03588840     0.16200
F794        F  0.41494883  0.22469305  0.05222023    -0.23200
H795        H  0.37429096  0.22247119  0.09963871     0.18000
C796        C  0.30615599  0.24486015  0.12649661     0.26000
C797        C  0.28567694  0.24620040  0.15312449    -0.11700
C798        C  0.29066325  0.26893393  0.17751512    -0.25800
C799        C  0.31756740  0.28933100  0.17538941     0.36900
C800        C  0.33775480  0.28809277  0.14869239    -0.27400
F801        F  0.29981517  0.22382948  0.10258369    -0.19500
H802        H  0.26521217  0.23023966  0.15404627     0.16200
F803        F  0.32361004  0.31162259  0.19823231    -0.23200
H804        H  0.35757393  0.30480329  0.14693087     0.18000
C805        C  0.55938767  0.28801628  0.08039668    -0.27300
C806        C  0.56974357  0.31901922  0.08776088     0.06400
C807        C  0.55711249  0.34556651  0.07126510     0.26000
C808        C  0.53395955  0.34103469  0.04773142    -0.11700
C809        C  0.52339727  0.30998371  0.04032288    -0.25700
C810        C  0.53620495  0.28342077  0.05690682     0.36800
C811        C  0.59374898  0.32358204  0.11277174     0.06400
F812        F  0.56763563  0.37571289  0.07756002    -0.19500
H813        H  0.52458010  0.36175988  0.03505258     0.16200
F814        F  0.52585041  0.25314567  0.05100012    -0.23200
H815        H  0.56897316  0.26745534  0.09319995     0.18000
C816        C  0.58621980  0.34180226  0.13991252     0.26000
C817        C  0.60973517  0.34759847  0.16277270    -0.11700
C818        C  0.64103278  0.33531817  0.15877054    -0.25800
C819        C  0.64814720  0.31604409  0.13196372     0.36900
C820        C  0.62449796  0.31020734  0.10918309    -0.27400
F821        F  0.55616124  0.35404341  0.14415336    -0.19500
H822        H  0.60356257  0.36222214  0.18330817     0.16200
F823        F  0.67805056  0.30363572  0.12715980    -0.23200
H824        H  0.63037406  0.29597821  0.08827379     0.18000
C825        C  0.58452329  0.37426103  0.81078357    -0.27300
C826        C  0.59196190  0.35046879  0.83356673     0.06400
C827        C  0.62306504  0.33704553  0.83372436     0.26000
C828        C  0.64631523  0.34775926  0.81209273    -0.11700
C829        C  0.63921196  0.37205468  0.78970724    -0.25700
C830        C  0.60781978  0.38497320  0.78900721     0.36800
C831        C  0.56763624  0.34044954  0.85769108     0.06400
F832        F  0.63141461  0.31434286  0.85555758    -0.19500
H833        H  0.67015597  0.33718324  0.81321936     0.16200
F834        F  0.59956426  0.40797328  0.76746123    -0.23200
H835        H  0.56056483  0.38459393  0.80986638     0.18000
C836        C  0.55091180  0.36351028  0.87586287     0.26000
C837        C  0.52854912  0.35398197  0.89896404    -0.11700
C838        C  0.52244306  0.32126326  0.90473017    -0.25800
C839        C  0.53932061  0.29814649  0.88664002     0.36900
C840        C  0.56156103  0.30773270  0.86331046    -0.27400
F841        F  0.55690195  0.39529632  0.87200124    -0.19500
H842        H  0.51621995  0.37238969  0.91263577     0.16200
F843        F  0.53427203  0.26631211  0.89125742    -0.23200
H844        H  0.57397850  0.28951972  0.84946024     0.18000
C845        C  0.28869930  0.27512763  0.84052267    -0.27300
C846        C  0.32083682  0.27846477  0.83108439     0.06400
C847        C  0.32825725  0.28801368  0.79979428     0.26000
C848        C  0.30368926  0.29698650  0.77903810    -0.11700
C849        C  0.27150817  0.29625457  0.78923372    -0.25700
C850        C  0.26400739  0.28397176  0.81970709     0.36800
C851        C  0.34576435  0.27982799  0.85559903     0.06400
F852        F  0.35936992  0.29109311  0.79031782    -0.19500
H853        H  0.30991877  0.30572893  0.75542416     0.16200
F854        F  0.23314441  0.28301282  0.83035127    -0.23200
H855        H  0.28284164  0.26819956  0.86482585     0.18000
C856        C  0.35928749  0.30972642  0.86269237     0.26000
C857        C  0.38178962  0.31236087  0.88690520    -0.11700
C858        C  0.39127305  0.28523011  0.90438476    -0.25800
C859        C  0.37771174  0.25511675  0.89737641     0.36900
C860        C  0.35473148  0.25255427  0.87314110    -0.27400
F861        F  0.35002645  0.33659059  0.84664091    -0.19500
H862        H  0.39189870  0.33574828  0.89189724     0.16200
F863        F  0.38597384  0.22853025  0.91437247    -0.23200
H864        H  0.34392512  0.22950322  0.86807915     0.18000
loop_ 
_geom_bond_atom_site_label_1 
_geom_bond_atom_site_label_2 
_geom_bond_distance 
_geom_bond_site_symmetry_2 
_ccdc_geom_bond_type 
O1            V9   1.912       .  S
O1           C11   1.268       .  A
O2            V9   1.910   1_554  S
O2           C12   1.267       .  A
O3            V9   1.889       .  S
O3           C13   1.261       .  A
O4            V9   1.884   1_554  S
O4           C14   1.261       .  A
O5           V10   1.888   1_554  S
O5           C14   1.262       .  A
O6           V10   1.883       .  S
O6           C13   1.263       .  A
O7           V10   1.891   1_554  S
O7           C12   1.263       .  A
O8           V10   1.893       .  S
O8           C11   1.263       .  A
V9           V10   2.087       .  T
C11         C838   1.487       .  S
C12         C789   1.483       .  S
C13         C858   1.462       .  S
C14         C809   1.463       .  S
O15          V23   1.886       .  S
O15          C25   1.262       .  A
O16          V23   1.886   1_556  S
O16          C26   1.262       .  A
O17          V23   1.888   1_556  S
O17          C27   1.262       .  A
O18          V23   1.883       .  S
O18          C28   1.262       .  A
O19          V24   1.904       .  S
O19          C28   1.265       .  A
O20          V24   1.905   1_556  S
O20          C27   1.266       .  A
O21          V24   1.913   1_556  S
O21          C26   1.268       .  A
O22          V24   1.914       .  S
O22          C25   1.268       .  A
V23          V24   2.085       .  T
C25         C709   1.484       .  S
C26         C749   1.485       .  S
C27         C769   1.478       .  S
C28         C729   1.474       .  S
O29          V37   1.888       .  S
O29          C39   1.262       .  A
O30          V37   1.888   1_556  S
O30          C40   1.263       .  A
O31          V37   1.886       .  S
O31          C41   1.263       .  A
O32          V37   1.892   1_556  S
O32          C42   1.264       .  A
O33          V38   1.891   1_556  S
O33          C42   1.263       .  A
O34          V38   1.892       .  S
O34          C41   1.263       .  A
O35          V38   1.909   1_556  S
O35          C40   1.266       .  A
O36          V38   1.906       .  S
O36          C39   1.267       .  A
V37          V38   2.086       .  T
C39         C658   1.476       .  S
C40         C689   1.482       .  S
C41         C629   1.471       .  S
C42         C678   1.474       .  S
O43          V51   1.894   1_554  S
O43          C53   1.263       .  A
O44          V51   1.891       .  S
O44          C54   1.264       .  A
O45          V51   1.889       .  S
O45          C55   1.262       .  A
O46          V51   1.887   1_554  S
O46          C56   1.262       .  A
O47          V52   1.904   1_554  S
O47          C56   1.266       .  A
O48          V52   1.905       .  S
O48          C55   1.267       .  A
O49          V52   1.895       .  S
O49          C54   1.263       .  A
O50          V52   1.893   1_554  S
O50          C53   1.263       .  A
V51          V52   2.086       .  T
C53         C549   1.473       .  S
C54         C589   1.475       .  S
C55         C609   1.478       .  S
C56         C569   1.478       .  S
O57          V65   1.901       .  S
O57          C67   1.265       .  A
O58          V65   1.900       .  S
O58          C68   1.265       .  A
O59          V65   1.891       .  S
O59          C69   1.263       .  A
O60          V65   1.895       .  S
O60          C70   1.264       .  A
O61          V66   1.893       .  S
O61          C70   1.264       .  A
O62          V66   1.895       .  S
O62          C69   1.264       .  A
O63          V66   1.893       .  S
O63          C68   1.263       .  A
O64          V66   1.892       .  S
O64          C67   1.264       .  A
V65          V66   2.086       .  T
C67         C498   1.479       .  S
C68         C538   1.477   1_545  S
C69         C469   1.475       .  S
C70         C509   1.477       .  S
O71          V79   1.910       .  S
O71          C81   1.268       .  A
O72          V79   1.910       .  S
O72          C82   1.267       .  A
O73          V79   1.892       .  S
O73          C83   1.263       .  A
O74          V79   1.890       .  S
O74          C84   1.261       .  A
O75          V80   1.892       .  S
O75          C84   1.265       .  A
O76          V80   1.895       .  S
O76          C83   1.264       .  A
O77          V80   1.881       .  S
O77          C82   1.261       .  A
O78          V80   1.883       .  S
O78          C81   1.260       .  A
V79          V80   2.086       .  T
C81         C438   1.480   1_455  S
C82         C398   1.480       .  S
C83         C418   1.476       .  S
C84         C449   1.472   1_455  S
O85          V93   1.894       .  S
O85          C95   1.263       .  A
O86          V93   1.892       .  S
O86          C96   1.263       .  A
O87          V93   1.897       .  S
O87          C97   1.265       .  A
O88          V93   1.902       .  S
O88          C98   1.265       .  A
O89          V94   1.891       .  S
O89          C98   1.263       .  A
O90          V94   1.894       .  S
O90          C97   1.263       .  A
O91          V94   1.896       .  S
O91          C96   1.264       .  A
O92          V94   1.897       .  S
O92          C95   1.265       .  A
V93          V94   2.086       .  T
C95         C369   1.478       .  S
C96         C338   1.476       .  S
C97         C349   1.475       .  S
C98         C309   1.474       .  S
O99         V107   1.888       .  S
O99         C109   1.261   1_655  A
O100        V107   1.890       .  S
O100        C110   1.263       .  A
O101        V107   1.894       .  S
O101        C111   1.264       .  A
O102        V107   1.889       .  S
O102        C112   1.264   1_655  A
O103        V108   1.894       .  S
O103        C112   1.263   1_655  A
O104        V108   1.893       .  S
O104        C111   1.263       .  A
O105        V108   1.912       .  S
O105        C110   1.267       .  A
O106        V108   1.910       .  S
O106        C109   1.268   1_655  A
V107        V108   2.086       .  T
C109        C258   1.483       .  S
C110        C289   1.479       .  S
C111        C269   1.473       .  S
C112        C238   1.473       .  S
O113        V121   1.895       .  S
O113        C123   1.264       .  A
O114        V121   1.893       .  S
O114        C124   1.263       .  A
O115        V121   1.893       .  S
O115        C125   1.264       .  A
O116        V121   1.897       .  S
O116        C126   1.265       .  A
O117        V122   1.902       .  S
O117        C126   1.266       .  A
O118        V122   1.903       .  S
O118        C125   1.266       .  A
O119        V122   1.890       .  S
O119        C124   1.262       .  A
O120        V122   1.891       .  S
O120        C123   1.263       .  A
V121        V122   2.086       .  T
C123        C478   1.473       .  S
C124        C738   1.466       .  S
C125        C249   1.480       .  S
C126        C798   1.484       .  S
O127        V135   1.895       .  S
O127        C137   1.264       .  A
O128        V135   1.894       .  S
O128        C138   1.263       .  A
O129        V135   1.887       .  S
O129        C139   1.263       .  A
O130        V135   1.886       .  S
O130        C140   1.261       .  A
O131        V136   1.889       .  S
O131        C140   1.263       .  A
O132        V136   1.896       .  S
O132        C139   1.264       .  A
O133        V136   1.892       .  S
O133        C138   1.264       .  A
O134        V136   1.893       .  S
O134        C137   1.263       .  A
V135        V136   2.087       .  T
C137        C329   1.476       .  S
C138        C558   1.474       .  S
C139        C278   1.474       .  S
C140        C818   1.468       .  S
O141        V149   1.894       .  S
O141        C151   1.262       .  A
O142        V149   1.900       .  S
O142        C152   1.264       .  A
O143        V149   1.909       .  S
O143        C153   1.267       .  A
O144        V149   1.912       .  S
O144        C154   1.268       .  A
O145        V150   1.890       .  S
O145        C154   1.263       .  A
O146        V150   1.897       .  S
O146        C153   1.264       .  A
O147        V150   1.896       .  S
O147        C152   1.265       .  A
O148        V150   1.898       .  S
O148        C151   1.265       .  A
V149        V150   2.086       .  T
C151        C318   1.470       .  S
C152        C618   1.478       .  S
C153        C298   1.480       .  S
C154        C829   1.486       .  S
O155        V163   1.903       .  S
O155        C165   1.266       .  A
O156        V163   1.901       .  S
O156        C166   1.266       .  A
O157        V163   1.891       .  S
O157        C167   1.262       .  A
O158        V163   1.888       .  S
O158        C168   1.263       .  A
O159        V164   1.893       .  S
O159        C168   1.263       .  A
O160        V164   1.890       .  S
O160        C167   1.264       .  A
O161        V164   1.888       .  S
O161        C166   1.262       .  A
O162        V164   1.890       .  S
O162        C165   1.262       .  A
V163        V164   2.086       .  T
C165        C358   1.478       .  S
C166        C578   1.477       .  S
C167        C458   1.471       .  S
C168        C638   1.472       .  S
O169        V177   1.895       .  S
O169        C179   1.263       .  A
O170        V177   1.899       .  S
O170        C180   1.265       .  A
O171        V177   1.893       .  S
O171        C181   1.262       .  A
O172        V177   1.890       .  S
O172        C182   1.263       .  A
O173        V178   1.897       .  S
O173        C182   1.263       .  A
O174        V178   1.897       .  S
O174        C181   1.264       .  A
O175        V178   1.895       .  S
O175        C180   1.263       .  A
O176        V178   1.898       .  S
O176        C179   1.265       .  A
V177        V178   2.087       .  T
C179        C429   1.480       .  S
C180        C698   1.477       .  S
C181        C378   1.470       .  S
C182        C598   1.468       .  S
O183        V191   1.900       .  S
O183        C193   1.263       .  A
O184        V191   1.894       .  S
O184        C194   1.263       .  A
O185        V191   1.905       .  S
O185        C195   1.266       .  A
O186        V191   1.906       .  S
O186        C196   1.266       .  A
O187        V192   1.891       .  S
O187        C196   1.262       .  A
O188        V192   1.892       .  S
O188        C195   1.264       .  A
O189        V192   1.898       .  S
O189        C194   1.266       .  A
O190        V192   1.898       .  S
O190        C193   1.263       .  A
V191        V192   2.087       .  T
C193        C649   1.465       .  S
C194        C389   1.477       .  S
C195        C718   1.482       .  S
C196        C529   1.472       .  S
O197        V205   1.893       .  S
O197        C207   1.264       .  A
O198        V205   1.896       .  S
O198        C208   1.264       .  A
O199        V205   1.892       .  S
O199        C209   1.263       .  A
O200        V205   1.889       .  S
O200        C210   1.263       .  A
O201        V206   1.900       .  S
O201        C210   1.265       .  A
O202        V206   1.904       .  S
O202        C209   1.266       .  A
O203        V206   1.893       .  S
O203        C208   1.263       .  A
O204        V206   1.891       .  S
O204        C207   1.263       .  A
V205        V206   2.086       .  T
C207        C669   1.473       .  S
C208        C409   1.475       .  S
C209        C778   1.481       .  S
C210        C518   1.477       .  S
O211        V219   1.897       .  S
O211        C221   1.264       .  A
O212        V219   1.899       .  S
O212        C222   1.264       .  A
O213        V219   1.889       .  S
O213        C223   1.263       .  A
O214        V219   1.889       .  S
O214        C224   1.261       .  A
O215        V220   1.890       .  S
O215        C224   1.264       .  A
O216        V220   1.891       .  S
O216        C223   1.263       .  A
O217        V220   1.901       .  S
O217        C222   1.266       .  A
O218        V220   1.897       .  S
O218        C221   1.264       .  A
V219        V220   2.086       .  T
C221        C489   1.475       .  S
C222        C758   1.484       .  S
C223        C229   1.471       .  S
C224        C849   1.466       .  S
C225        C226   1.402       .  A
C225        C230   1.391       .  A
C225        H235   1.084       .  S
C226        C231   1.471       .  S
C226        C227   1.404       .  A
C227        C228   1.395       .  A
C227        F232   1.358       .  S
C228        C229   1.406       .  A
C228        H233   1.083       .  S
C229        C230   1.407       .  A
C230        F234   1.358       .  S
C231        C236   1.404       .  A
C231        C240   1.402       .  A
C236        C237   1.389       .  A
C236        F241   1.358       .  S
C237        C238   1.403       .  A
C237        H242   1.083       .  S
C238        C239   1.410       .  A
C239        C240   1.397       .  A
C239        F243   1.357       .  S
C240        H244   1.083       .  S
C245        C246   1.405       .  A
C245        C250   1.399       .  A
C245        H255   1.084       .  S
C246        C251   1.481       .  S
C246        C247   1.405       .  A
C247        C248   1.396       .  A
C247        F252   1.357       .  S
C248        C249   1.406       .  A
C248        H253   1.083       .  S
C249        C250   1.409       .  A
C250        F254   1.357       .  S
C251        C256   1.407       .  A
C251        C260   1.401       .  A
C256        C257   1.400       .  A
C256        F261   1.357       .  S
C257        C258   1.405       .  A
C257        H262   1.083       .  S
C258        C259   1.412       .  A
C259        C260   1.395       .  A
C259        F263   1.358       .  S
C260        H264   1.084       .  S
C265        C266   1.402       .  A
C265        C270   1.393       .  A
C265        H275   1.083       .  S
C266        C271   1.472       .  S
C266        C267   1.403       .  A
C267        C268   1.397       .  A
C267        F272   1.357       .  S
C268        C269   1.406       .  A
C268        H273   1.083       .  S
C269        C270   1.407       .  A
C270        F274   1.358       .  S
C271        C276   1.403       .  A
C271        C280   1.402       .  A
C276        C277   1.392       .  A
C276        F281   1.358       .  S
C277        C278   1.405       .  A
C277        H282   1.083       .  S
C278        C279   1.409       .  A
C279        C280   1.397       .  A
C279        F283   1.357       .  S
C280        H284   1.083       .  S
C285        C286   1.407       .  A
C285        C290   1.404       .  A
C285        H295   1.083       .  S
C286        C291   1.485       .  S
C286        C287   1.406       .  A
C287        C288   1.395       .  A
C287        F292   1.358       .  S
C288        C289   1.405       .  A
C288        H293   1.084       .  S
C289        C290   1.406       .  A
C290        F294   1.357       .  S
C291        C296   1.407       .  A
C291        C300   1.405       .  A
C296        C297   1.399       .  A
C296        F301   1.358       .  S
C297        C298   1.405       .  A
C297        H302   1.083       .  S
C298        C299   1.407       .  A
C299        C300   1.401       .  A
C299        F303   1.357       .  S
C300        H304   1.083       .  S
C305        C306   1.402       .  A
C305        C310   1.393       .  A
C305        H315   1.083       .  S
C306        C311   1.474       .  S
C306        C307   1.405       .  A
C307        C308   1.400       .  A
C307        F312   1.357       .  S
C308        C309   1.405       .  A
C308        H313   1.083       .  S
C309        C310   1.407       .  A
C310        F314   1.358       .  S
C311        C316   1.405       .  A
C311        C320   1.403       .  A
C316        C317   1.396       .  A
C316        F321   1.358       .  S
C317        C318   1.403       .  A
C317        H322   1.083       .  S
C318        C319   1.406       .  A
C319        C320   1.396       .  A
C319        F323   1.358       .  S
C320        H324   1.083       .  S
C325        C326   1.399       .  A
C325        C330   1.395       .  A
C325        H335   1.084       .  S
C326        C331   1.465       .  S
C326        C327   1.401       .  A
C327        C328   1.395       .  A
C327        F332   1.358       .  S
C328        C329   1.407       .  A
C328        H333   1.083       .  S
C329        C330   1.409       .  A
C330        F334   1.357       .  S
C331        C336   1.399       .  A
C331        C340   1.400       .  A
C336        C337   1.396       .  A
C336        F341   1.357       .  S
C337        C338   1.408       .  A
C337        H342   1.083       .  S
C338        C339   1.408       .  A
C339        C340   1.394       .  A
C339        F343   1.357       .  S
C340        H344   1.084       .  S
C345        C346   1.404       .  A
C345        C350   1.395       .  A
C345        H355   1.083       .  S
C346        C351   1.480   1_545  S
C346        C347   1.407       .  A
C347        C348   1.397       .  A
C347        F352   1.358       .  S
C348        C349   1.405       .  A
C348        H353   1.083       .  S
C349        C350   1.406       .  A
C350        F354   1.357       .  S
C351        C356   1.407       .  A
C351        C360   1.403       .  A
C356        C357   1.397       .  A
C356        F361   1.358       .  S
C357        C358   1.405       .  A
C357        H362   1.083       .  S
C358        C359   1.409       .  A
C359        C360   1.396       .  A
C359        F363   1.358       .  S
C360        H364   1.083   1_565  S
C365        C366   1.400       .  A
C365        C370   1.394       .  A
C365        H375   1.084       .  S
C366        C371   1.470       .  S
C366        C367   1.402       .  A
C367        C368   1.397       .  A
C367        F372   1.358       .  S
C368        C369   1.408       .  A
C368        H373   1.083       .  S
C369        C370   1.409       .  A
C370        F374   1.357       .  S
C371        C376   1.404   1_545  A
C371        C380   1.401       .  A
C376        C377   1.397       .  A
C376        F381   1.358       .  S
C377        C378   1.405       .  A
C377        H382   1.084       .  S
C378        C379   1.405       .  A
C379        C380   1.395   1_565  A
C379        F383   1.357   1_565  S
C380        H384   1.084       .  S
C385        C386   1.401       .  A
C385        C390   1.398       .  A
C385        H395   1.083       .  S
C386        C391   1.473       .  S
C386        C387   1.404       .  A
C387        C388   1.394       .  A
C387        F392   1.358       .  S
C388        C389   1.404       .  A
C388        H393   1.083       .  S
C389        C390   1.411       .  A
C390        F394   1.357       .  S
C391        C396   1.404       .  A
C391        C400   1.399       .  A
C396        C397   1.402       .  A
C396        F401   1.357       .  S
C397        C398   1.408       .  A
C397        H402   1.082       .  S
C398        C399   1.411       .  A
C399        C400   1.389       .  A
C399        F403   1.358       .  S
C400        H404   1.083       .  S
C405        C406   1.402       .  A
C405        C410   1.395       .  A
C405        H415   1.083       .  S
C406        C411   1.474       .  S
C406        C407   1.404       .  A
C407        C408   1.396       .  A
C407        F412   1.358       .  S
C408        C409   1.406       .  A
C408        H413   1.083       .  S
C409        C410   1.408       .  A
C410        F414   1.357       .  S
C411        C416   1.403       .  A
C411        C420   1.403       .  A
C416        C417   1.396       .  A
C416        F421   1.357       .  S
C417        C418   1.407       .  A
C417        H422   1.083       .  S
C418        C419   1.408       .  A
C419        C420   1.395       .  A
C419        F423   1.358       .  S
C420        H424   1.083       .  S
C425        C426   1.404       .  A
C425        C430   1.398       .  A
C425        H435   1.083       .  S
C426        C431   1.482       .  S
C426        C427   1.407       .  A
C427        C428   1.395       .  A
C427        F432   1.358       .  S
C428        C429   1.405       .  A
C428        H433   1.083       .  S
C429        C430   1.410       .  A
C430        F434   1.357       .  S
C431        C436   1.408       .  A
C431        C440   1.402       .  A
C436        C437   1.400       .  A
C436        F441   1.357       .  S
C437        C438   1.405       .  A
C437        H442   1.083       .  S
C438        C439   1.411       .  A
C439        C440   1.393       .  A
C439        F443   1.358       .  S
C440        H444   1.083       .  S
C445        C446   1.401       .  A
C445        C450   1.397       .  A
C445        H455   1.083       .  S
C446        C451   1.469       .  S
C446        C447   1.404       .  A
C447        C448   1.389       .  A
C447        F452   1.358       .  S
C448        C449   1.402       .  A
C448        H453   1.083       .  S
C449        C450   1.411       .  A
C450        F454   1.357       .  S
C451        C456   1.403       .  A
C451        C460   1.402       .  A
C456        C457   1.390       .  A
C456        F461   1.358       .  S
C457        C458   1.404       .  A
C457        H462   1.083       .  S
C458        C459   1.409       .  A
C459        C460   1.396       .  A
C459        F463   1.358       .  S
C460        H464   1.083       .  S
C465        C466   1.400       .  A
C465        C470   1.394       .  A
C465        H475   1.083       .  S
C466        C471   1.471       .  S
C466        C467   1.404       .  A
C467        C468   1.395       .  A
C467        F472   1.358       .  S
C468        C469   1.406       .  A
C468        H473   1.083       .  S
C469        C470   1.409       .  A
C470        F474   1.357       .  S
C471        C476   1.404       .  A
C471        C480   1.401       .  A
C476        C477   1.394       .  A
C476        F481   1.358       .  S
C477        C478   1.404       .  A
C477        H482   1.083       .  S
C478        C479   1.408       .  A
C479        C480   1.395       .  A
C479        F483   1.357       .  S
C480        H484   1.083       .  S
C485        C486   1.403       .  A
C485        C490   1.397       .  A
C485        H495   1.083       .  S
C486        C491   1.476       .  S
C486        C487   1.405       .  A
C487        C488   1.396       .  A
C487        F492   1.358       .  S
C488        C489   1.405       .  A
C488        H493   1.083       .  S
C489        C490   1.407       .  A
C490        F494   1.357       .  S
C491        C496   1.404       .  A
C491        C500   1.403       .  A
C496        C497   1.394       .  A
C496        F501   1.358       .  S
C497        C498   1.406       .  A
C497        H502   1.083       .  S
C498        C499   1.409       .  A
C499        C500   1.398       .  A
C499        F503   1.357       .  S
C500        H504   1.083       .  S
C505        C506   1.401       .  A
C505        C510   1.393       .  A
C505        H515   1.083       .  S
C506        C511   1.470       .  S
C506        C507   1.402       .  A
C507        C508   1.397   1_565  A
C507        F512   1.357       .  S
C508        C509   1.408       .  A
C508        H513   1.083       .  S
C509        C510   1.409   1_545  A
C510        F514   1.357       .  S
C511        C516   1.402       .  A
C511        C520   1.401       .  A
C516        C517   1.394       .  A
C516        F521   1.358       .  S
C517        C518   1.407       .  A
C517        H522   1.083       .  S
C518        C519   1.408       .  A
C519        C520   1.396       .  A
C519        F523   1.357       .  S
C520        H524   1.083       .  S
C525        C526   1.403       .  A
C525        C530   1.398       .  A
C525        H535   1.083       .  S
C526        C531   1.476       .  S
C526        C527   1.404       .  A
C527        C528   1.397       .  A
C527        F532   1.357       .  S
C528        C529   1.403       .  A
C528        H533   1.083       .  S
C529        C530   1.407       .  A
C530        F534   1.358       .  S
C531        C536   1.404       .  A
C531        C540   1.403       .  A
C536        C537   1.398       .  A
C536        F541   1.357       .  S
C537        C538   1.406       .  A
C537        H542   1.083   1_565  S
C538        C539   1.408       .  A
C539        C540   1.397       .  A
C539        F543   1.358       .  S
C540        H544   1.083       .  S
C545        C546   1.404       .  A
C545        C550   1.394       .  A
C545        H555   1.083       .  S
C546        C551   1.478       .  S
C546        C547   1.406       .  A
C547        C548   1.395       .  A
C547        F552   1.358       .  S
C548        C549   1.404       .  A
C548        H553   1.083       .  S
C549        C550   1.407       .  A
C550        F554   1.357       .  S
C551        C556   1.406       .  A
C551        C560   1.404       .  A
C556        C557   1.393       .  A
C556        F561   1.358       .  S
C557        C558   1.404       .  A
C557        H562   1.083       .  S
C558        C559   1.408       .  A
C559        C560   1.396       .  A
C559        F563   1.357       .  S
C560        H564   1.083       .  S
C565        C566   1.398       .  A
C565        C570   1.393       .  A
C565        H575   1.084       .  S
C566        C571   1.467       .  S
C566        C567   1.402       .  A
C567        C568   1.399       .  A
C567        F572   1.357       .  S
C568        C569   1.407       .  A
C568        H573   1.083       .  S
C569        C570   1.411       .  A
C570        F574   1.358       .  S
C571        C576   1.400       .  A
C571        C580   1.401       .  A
C576        C577   1.394       .  A
C576        F581   1.358       .  S
C577        C578   1.408       .  A
C577        H582   1.083       .  S
C578        C579   1.408       .  A
C579        C580   1.396       .  A
C579        F583   1.357       .  S
C580        H584   1.083       .  S
C585        C586   1.399       .  A
C585        C590   1.398       .  A
C585        H595   1.083       .  S
C586        C591   1.463       .  S
C586        C587   1.400       .  A
C587        C588   1.391       .  A
C587        F592   1.358       .  S
C588        C589   1.405       .  A
C588        H593   1.083       .  S
C589        C590   1.411       .  A
C590        F594   1.357       .  S
C591        C596   1.402       .  A
C591        C600   1.399       .  A
C596        C597   1.397       .  A
C596        F601   1.357       .  S
C597        C598   1.405       .  A
C597        H602   1.083       .  S
C598        C599   1.406       .  A
C599        C600   1.393       .  A
C599        F603   1.358       .  S
C600        H604   1.084       .  S
C605        C606   1.404       .  A
C605        C610   1.396       .  A
C605        H615   1.083       .  S
C606        C611   1.484       .  S
C606        C607   1.408       .  A
C607        C608   1.398       .  A
C607        F612   1.357       .  S
C608        C609   1.404       .  A
C608        H613   1.083       .  S
C609        C610   1.409       .  A
C610        F614   1.358       .  S
C611        C616   1.407       .  A
C611        C620   1.406       .  A
C616        C617   1.396       .  A
C616        F621   1.357       .  S
C617        C618   1.404       .  A
C617        H622   1.083       .  S
C618        C619   1.408       .  A
C619        C620   1.399       .  A
C619        F623   1.358       .  S
C620        H624   1.083       .  S
C625        C626   1.401       .  A
C625        C630   1.389       .  A
C625        H635   1.083       .  S
C626        C631   1.469       .  S
C626        C627   1.403       .  A
C627        C628   1.396       .  A
C627        F632   1.357       .  S
C628        C629   1.406       .  A
C628        H633   1.083       .  S
C629        C630   1.407       .  A
C630        F634   1.358       .  S
C631        C636   1.403       .  A
C631        C640   1.401       .  A
C636        C637   1.392       .  A
C636        F641   1.358       .  S
C637        C638   1.405       .  A
C637        H642   1.083       .  S
C638        C639   1.408       .  A
C639        C640   1.394       .  A
C639        F643   1.357       .  S
C640        H644   1.083       .  S
C645        C646   1.406       .  A
C645        C650   1.398       .  A
C645        H655   1.083       .  S
C646        C651   1.485       .  S
C646        C647   1.410       .  A
C647        C648   1.397       .  A
C647        F652   1.358       .  S
C648        C649   1.399       .  A
C648        H653   1.084       .  S
C649        C650   1.402       .  A
C650        F654   1.358       .  S
C651        C656   1.409       .  A
C651        C660   1.404       .  A
C656        C657   1.398       .  A
C656        F661   1.357       .  S
C657        C658   1.403       .  A
C657        H662   1.083       .  S
C658        C659   1.408       .  A
C659        C660   1.396       .  A
C659        F663   1.358       .  S
C660        H664   1.083       .  S
C665        C666   1.402       .  A
C665        C670   1.393       .  A
C665        H675   1.083       .  S
C666        C671   1.473       .  S
C666        C667   1.404       .  A
C667        C668   1.394       .  A
C667        F672   1.357       .  S
C668        C669   1.405       .  A
C668        H673   1.083       .  S
C669        C670   1.408       .  A
C670        F674   1.358       .  S
C671        C676   1.405       .  A
C671        C680   1.402       .  A
C676        C677   1.392       .  A
C676        F681   1.358       .  S
C677        C678   1.404       .  A
C677        H682   1.083       .  S
C678        C679   1.409       .  A
C679        C680   1.395       .  A
C679        F683   1.357       .  S
C680        H684   1.083       .  S
C685        C686   1.402       .  A
C685        C690   1.403       .  A
C685        H695   1.083       .  S
C686        C691   1.470       .  S
C686        C687   1.400       .  A
C687        C688   1.392       .  A
C687        F692   1.358       .  S
C688        C689   1.407       .  A
C688        H693   1.083       .  S
C689        C690   1.411       .  A
C690        F694   1.357       .  S
C691        C696   1.403       .  A
C691        C700   1.400       .  A
C696        C697   1.396       .  A
C696        F701   1.357       .  S
C697        C698   1.405       .  A
C697        H702   1.083       .  S
C698        C699   1.411       .  A
C699        C700   1.398       .  A
C699        F703   1.358       .  S
C700        H704   1.084       .  S
C705        C706   1.408       .  A
C705        C710   1.403       .  A
C705        H715   1.083       .  S
C706        C711   1.485       .  S
C706        C707   1.404       .  A
C707        C708   1.393       .  A
C707        F712   1.358       .  S
C708        C709   1.407       .  A
C708        H713   1.083       .  S
C709        C710   1.409       .  A
C710        F714   1.357       .  S
C711        C716   1.405       .  A
C711        C720   1.406       .  A
C716        C717   1.396       .  A
C716        F721   1.357       .  S
C717        C718   1.406       .  A
C717        H722   1.083       .  S
C718        C719   1.409       .  A
C719        C720   1.400       .  A
C719        F723   1.357       .  S
C720        H724   1.083       .  S
C725        C726   1.401       .  A
C725        C730   1.399       .  A
C725        H735   1.083       .  S
C726        C731   1.464       .  S
C726        C727   1.400       .  A
C727        C728   1.389       .  A
C727        F732   1.358       .  S
C728        C729   1.405       .  A
C728        H733   1.083       .  S
C729        C730   1.409       .  A
C730        F734   1.357       .  S
C731        C736   1.402       .  A
C731        C740   1.400       .  A
C736        C737   1.394       .  A
C736        F741   1.358       .  S
C737        C738   1.403       .  A
C737        H742   1.083       .  S
C738        C739   1.407       .  A
C739        C740   1.394       .  A
C739        F743   1.358       .  S
C740        H744   1.084       .  S
C745        C746   1.402       .  A
C745        C750   1.393       .  A
C745        H755   1.083       .  S
C746        C751   1.485       .  S
C746        C747   1.408       .  A
C747        C748   1.404       .  A
C747        F752   1.357       .  S
C748        C749   1.407       .  A
C748        H753   1.083       .  S
C749        C750   1.410       .  A
C750        F754   1.358       .  S
C751        C756   1.408       .  A
C751        C760   1.404       .  A
C756        C757   1.397       .  A
C756        F761   1.358       .  S
C757        C758   1.405       .  A
C757        H762   1.083       .  S
C758        C759   1.411       .  A
C759        C760   1.400       .  A
C759        F763   1.357       .  S
C760        H764   1.083       .  S
C765        C766   1.399       .  A
C765        C770   1.395       .  A
C765        H775   1.084       .  S
C766        C771   1.474       .  S
C766        C767   1.405       .  A
C767        C768   1.399       .  A
C767        F772   1.357       .  S
C768        C769   1.406       .  A
C768        H773   1.083       .  S
C769        C770   1.410       .  A
C770        F774   1.358       .  S
C771        C776   1.401       .  A
C771        C780   1.403       .  A
C776        C777   1.396       .  A
C776        F781   1.357       .  S
C777        C778   1.407       .  A
C777        H782   1.083       .  S
C778        C779   1.410       .  A
C779        C780   1.399       .  A
C779        F783   1.357       .  S
C780        H784   1.083       .  S
C785        C786   1.403       .  A
C785        C790   1.404       .  A
C785        H795   1.083       .  S
C786        C791   1.476       .  S
C786        C787   1.402       .  A
C787        C788   1.394       .  A
C787        F792   1.358       .  S
C788        C789   1.406       .  A
C788        H793   1.083       .  S
C789        C790   1.410       .  A
C790        F794   1.357       .  S
C791        C796   1.403       .  A
C791        C800   1.401       .  A
C796        C797   1.401       .  A
C796        F801   1.357       .  S
C797        C798   1.409       .  A
C797        H802   1.083       .  S
C798        C799   1.410       .  A
C799        C800   1.396       .  A
C799        F803   1.358       .  S
C800        H804   1.083       .  S
C805        C806   1.398       .  A
C805        C810   1.391       .  A
C805        H815   1.084       .  S
C806        C811   1.459       .  S
C806        C807   1.402       .  A
C807        C808   1.391       .  A
C807        F812   1.358       .  S
C808        C809   1.403       .  A
C808        H813   1.083       .  S
C809        C810   1.407       .  A
C810        F814   1.358       .  S
C811        C816   1.400       .  A
C811        C820   1.399       .  A
C816        C817   1.390       .  A
C816        F821   1.358       .  S
C817        C818   1.404       .  A
C817        H822   1.083       .  S
C818        C819   1.410       .  A
C819        C820   1.392       .  A
C819        F823   1.358       .  S
C820        H824   1.084       .  S
C825        C826   1.407       .  A
C825        C830   1.402       .  A
C825        H835   1.083       .  S
C826        C831   1.488       .  S
C826        C827   1.405       .  A
C827        C828   1.397       .  A
C827        F832   1.358       .  S
C828        C829   1.408       .  A
C828        H833   1.083       .  S
C829        C830   1.408       .  A
C830        F834   1.357       .  S
C831        C836   1.406       .  A
C831        C840   1.407       .  A
C836        C837   1.398       .  A
C836        F841   1.358       .  S
C837        C838   1.408       .  A
C837        H842   1.083       .  S
C838        C839   1.408       .  A
C839        C840   1.402       .  A
C839        F843   1.357       .  S
C840        H844   1.083       .  S
C845        C846   1.399       .  A
C845        C850   1.394       .  A
C845        H855   1.084       .  S
C846        C851   1.460       .  S
C846        C847   1.401       .  A
C847        C848   1.390       .  A
C847        F852   1.358       .  S
C848        C849   1.403       .  A
C848        H853   1.083       .  S
C849        C850   1.408       .  A
C850        F854   1.357       .  S
C851        C856   1.401       .  A
C851        C860   1.400       .  A
C856        C857   1.384       .  A
C856        F861   1.358       .  S
C857        C858   1.400       .  A
C857        H862   1.084       .  S
C858        C859   1.409       .  A
C859        C860   1.398       .  A
C859        F863   1.358       .  S
C860        H864   1.083       .  S
