geometry optimzed in LAMMPS
_audit_creation_date              2020-11-30 
_audit_creation_method            'lammps2cif' 
_symmetry_space_group_name_H-M    'P1' 
_symmetry_Int_Tables_number       1 
_symmetry_cell_setting            triclinic 
loop_ 
_symmetry_equiv_pos_as_xyz 
  x,y,z 
_cell_length_a                    44.00075341 
_cell_length_b                    44.159824228776614 
_cell_length_c                    43.80966763135624 
_cell_angle_alpha                 90.07960890223482 
_cell_angle_beta                  89.94160473726463 
_cell_angle_gamma                 90.60729891749378 
loop_ 
_atom_site_label 
_atom_site_type_symbol 
_atom_site_fract_x 
_atom_site_fract_y 
_atom_site_fract_z 
_atom_site_charge 
O1          O  0.48252146  0.27191486  0.02649318    -0.71500
O2          O  0.52821816  0.28192966  0.95321279    -0.71700
O3          O  0.54176496  0.28113452  0.01296033    -0.71600
O4          O  0.46915990  0.27269274  0.96663920    -0.71600
O5          O  0.46578966  0.32147536  0.96496405    -0.71600
O6          O  0.53220542  0.32853340  0.01960895    -0.71600
O7          O  0.52536311  0.33077074  0.95873935    -0.71500
O8          O  0.47283913  0.31962188  0.02614171    -0.71700
V9          V  0.50530151  0.27770894  0.98988411     1.35200
V10         V  0.49909209  0.32419977  0.99228699     1.35200
C11         C  0.46942273  0.29418160  0.03882781     0.77700
C12         C  0.53511810  0.30827512  0.94409043     0.77800
C13         C  0.54899827  0.30618814  0.02511074     0.77700
C14         C  0.45566787  0.29583184  0.95678700     0.77600
O15         O  0.19037919  0.52737103  0.98636375    -0.71500
O16         O  0.21380493  0.58679927  0.04415012    -0.71700
O17         O  0.21038444  0.52631497  0.04349430    -0.71600
O18         O  0.19411473  0.58801387  0.98651942    -0.71600
O19         O  0.14678358  0.58870383  0.00084910    -0.71600
O20         O  0.16505683  0.53043507  0.06221922    -0.71600
O21         O  0.16674346  0.59101345  0.05826406    -0.71500
O22         O  0.14431044  0.52745898  0.00440031    -0.71700
V23         V  0.20121593  0.55718822  0.01538133     1.35200
V24         V  0.15650772  0.55928415  0.03106312     1.35200
C25         C  0.16371771  0.51651588  0.98635598     0.77700
C26         C  0.19412302  0.59945123  0.06069907     0.77800
C27         C  0.19104560  0.51837988  0.06324206     0.77700
C28         C  0.16791572  0.59905221  0.98409061     0.77600
O29         O  0.52686164  0.93553275  0.03011781    -0.71500
O30         O  0.45982944  0.92465925  0.97632947    -0.71700
O31         O  0.46662507  0.92486958  0.03726390    -0.71600
O32         O  0.52045801  0.93434074  0.96917131    -0.71600
O33         O  0.52108677  0.88563437  0.96481308    -0.71600
O34         O  0.48102600  0.87840256  0.04069231    -0.71600
O35         O  0.46329027  0.87596983  0.98216415    -0.71500
O36         O  0.53851482  0.88829304  0.02337632    -0.71700
V37         V  0.49354597  0.92917650  0.00317646     1.35200
V38         V  0.50084999  0.88288476  0.00274278     1.35200
C39         C  0.54480935  0.91389626  0.03486851     0.77700
C40         C  0.44920740  0.89838880  0.97138938     0.77800
C41         C  0.46527251  0.89970744  0.05116951     0.77700
C42         C  0.52968469  0.91113502  0.95494327     0.77600
O43         O  0.84703635  0.65297548  0.00561703    -0.71500
O44         O  0.84660161  0.59764351  0.93925953    -0.71700
O45         O  0.84271345  0.65862846  0.94499458    -0.71600
O46         O  0.84998443  0.59218541  0.99995219    -0.71600
O47         O  0.80165033  0.59425592  0.00794689    -0.71600
O48         O  0.79452366  0.64957826  0.94294534    -0.71600
O49         O  0.79847998  0.58953442  0.94711082    -0.71500
O50         O  0.79769403  0.65447413  0.00363763    -0.71700
V51         V  0.84588067  0.62530503  0.97248157     1.35200
V52         V  0.79891935  0.62199069  0.97534838     1.35200
C53         C  0.82237260  0.66410203  0.01490727     0.77700
C54         C  0.82254044  0.58316327  0.93279449     0.77800
C55         C  0.81693946  0.66529677  0.93419870     0.77700
C56         C  0.82680563  0.58232373  0.01411261     0.77600
O57         O  0.32561906  0.03198087  0.49901813    -0.71500
O58         O  0.32050474  0.09002785  0.56314098    -0.71700
O59         O  0.31814683  0.02881485  0.55954716    -0.71600
O60         O  0.32748367  0.09293418  0.50232177    -0.71600
O61         O  0.27969230  0.08887781  0.49185879    -0.71600
O62         O  0.26962613  0.03574029  0.55877407    -0.71600
O63         O  0.27276958  0.09590484  0.55241320    -0.71500
O64         O  0.27628942  0.02875238  0.49848593    -0.71700
V65         V  0.32220340  0.06098396  0.53096611     1.35200
V66         V  0.27541326  0.06234574  0.52549510     1.35200
C67         C  0.30164746  0.01961605  0.48880902     0.77700
C68         C  0.29583853  0.10377779  0.56780034     0.77800
C69         C  0.29202638  0.02162234  0.56941739     0.77700
C70         C  0.30516733  0.10104145  0.48620212     0.77600
O71         O  0.02868949  0.80475867  0.53512951    -0.71500
O72         O  0.97817666  0.80952491  0.46510952    -0.71700
O73         O  0.97008973  0.81612184  0.52559133    -0.71600
O74         O  0.03727317  0.79839550  0.47462132    -0.71600
O75         O  0.02342774  0.75104187  0.47350011    -0.71600
O76         O  0.96360169  0.76798653  0.53406344    -0.71600
O77         O  0.96315903  0.76340780  0.47272361    -0.71500
O78         O  0.02346797  0.75608332  0.53500844    -0.71700
V79         V  0.00341652  0.80632095  0.50010274     1.35200
V80         V  0.99359702  0.76036510  0.50369163     1.35200
C81         C  0.03532577  0.77956783  0.54689919     0.77700
C82         C  0.96062534  0.78783624  0.45781846     0.77800
C83         C  0.95632375  0.79508330  0.53956030     0.77700
C84         C  0.04129955  0.77188800  0.46461515     0.77600
O85         O  0.71681655  0.15471535  0.50982117    -0.71500
O86         O  0.72273820  0.09693685  0.44673624    -0.71700
O87         O  0.72314183  0.15724521  0.44879761    -0.71600
O88         O  0.71609108  0.09430344  0.50766011    -0.71600
O89         O  0.66709590  0.10007043  0.50753753    -0.71600
O90         O  0.67507531  0.15168556  0.43857562    -0.71600
O91         O  0.67396544  0.09127471  0.44713211    -0.71500
O92         O  0.66927406  0.16053130  0.49919528    -0.71700
V93         V  0.71890252  0.12581780  0.47818248     1.35200
V94         V  0.67205371  0.12590950  0.47319485     1.35200
C95         C  0.69240071  0.16867907  0.51450395     0.77700
C96         C  0.69956487  0.08296974  0.43701960     0.77800
C97         C  0.70039883  0.16408048  0.43264744     0.77700
C98         C  0.69024972  0.08733747  0.51842710     0.77600
O99         O  0.95831366  0.37548747  0.51700567    -0.71500
O100        O  0.02556413  0.35057359  0.47000852    -0.71700
O101        O  0.01318192  0.35388032  0.53009591    -0.71600
O102        O  0.97068984  0.37252190  0.45727898    -0.71600
O103        O  0.98858418  0.41857203  0.45867626    -0.71600
O104        O  0.03167740  0.39971773  0.53120239    -0.71600
O105        O  0.04379813  0.39651210  0.47083400    -0.71500
O106        O  0.97670564  0.42116932  0.51940210    -0.71700
V107        V  0.99232324  0.36403165  0.49359959     1.35200
V108        V  0.00986625  0.40813192  0.49493032     1.35200
C109        C  0.95652960  0.40210910  0.52729136     0.77700
C110        C  0.04576318  0.36935897  0.46184340     0.77800
C111        C  0.02915115  0.37389198  0.54334913     0.77700
C112        C  0.97242082  0.39863232  0.44557331     0.77600
N113        N  0.29543238  0.33060722  0.23330509    -0.36300
N114        N  0.24114154  0.33917443  0.26870562    -0.56900
N115        N  0.26265032  0.29436920  0.31124368    -0.36300
N116        N  0.31811570  0.28655922  0.27631707    -0.56900
C117        C  0.28434760  0.35586862  0.22016394     0.27300
C118        C  0.32451781  0.32778540  0.22395710     0.27300
C119        C  0.24027292  0.30741444  0.32769576     0.27200
C120        C  0.27953777  0.27803769  0.33085696     0.27200
C121        C  0.23291715  0.35415830  0.24329101     0.35900
C122        C  0.21578143  0.33553569  0.28563712     0.35900
C123        C  0.33788859  0.28184549  0.25324973     0.35900
C124        C  0.32044989  0.26255916  0.29516843     0.35900
C125        C  0.30680758  0.36950328  0.20251506    -0.21600
C126        C  0.33215174  0.35163456  0.20476942    -0.21600
C127        C  0.24312742  0.29946052  0.35815399    -0.21600
C128        C  0.26751843  0.28046331  0.36005765    -0.21600
C129        C  0.20206087  0.36018021  0.24401237    -0.22700
C130        C  0.19116541  0.34835989  0.27098112    -0.22700
C131        C  0.35347315  0.25514702  0.25783129    -0.22700
C132        C  0.34255305  0.24299537  0.28461343    -0.22700
C133        C  0.25364087  0.36494824  0.22115922    -0.18000
C134        C  0.34255495  0.30195424  0.22868191    -0.18000
C135        C  0.30384389  0.25902746  0.32251231    -0.18000
C136        C  0.21558607  0.32365678  0.31548992    -0.18000
H137        H  0.30477095  0.38956329  0.18852530     0.14900
H138        H  0.35343322  0.35516075  0.19280731     0.14900
H139        H  0.22846460  0.30573690  0.37692624     0.14900
H140        H  0.27512251  0.26944123  0.38066032     0.14900
H141        H  0.18899676  0.37250254  0.22729457     0.13200
H142        H  0.16802680  0.34972963  0.27923565     0.13200
H143        H  0.37099125  0.24557794  0.24351319     0.13200
H144        H  0.34996899  0.22214869  0.29505781     0.13200
H145        H  0.28256506  0.31368290  0.24385126     0.26400
H146        H  0.26389238  0.29317479  0.28753447     0.26400
N147        N  0.77619900  0.36923774  0.16885729    -0.36300
N148        N  0.75226345  0.32701334  0.21318776    -0.56900
N149        N  0.79993106  0.34453887  0.25495367    -0.36300
N150        N  0.82399042  0.38652936  0.21097450    -0.56900
C151        C  0.74822303  0.36330175  0.15741303     0.27300
C152        C  0.78560411  0.39601703  0.15703292     0.27300
C153        C  0.78031564  0.33022191  0.27395445     0.27200
C154        C  0.81911761  0.36114769  0.27247082     0.27200
C155        C  0.73626031  0.31802140  0.18848850     0.35900
C156        C  0.74816756  0.30547369  0.23464363     0.35900
C157        C  0.83381581  0.40111557  0.18578336     0.35900
C158        C  0.84731429  0.38684750  0.23090737     0.35900
C159        C  0.73982616  0.38640086  0.13785583    -0.21600
C160        C  0.76340732  0.40712909  0.13768284    -0.21600
C161        C  0.78707786  0.33781371  0.30393765    -0.21600
C162        C  0.81164727  0.35734994  0.30300377    -0.21600
C163        C  0.72200479  0.29044152  0.19415506    -0.22700
C164        C  0.72955141  0.28248092  0.22353390    -0.22700
C165        C  0.86370818  0.41061471  0.18953660    -0.22700
C166        C  0.87233281  0.40145008  0.21823801    -0.22700
C167        C  0.73095411  0.33669905  0.16298298    -0.18000
C168        C  0.81461473  0.40942796  0.16156425    -0.18000
C169        C  0.84461482  0.37760087  0.26155998    -0.18000
C170        C  0.75866661  0.30811800  0.26494631    -0.18000
H171        H  0.71897822  0.38804086  0.12489665     0.14900
H172        H  0.76428728  0.42780802  0.12446108     0.14900
H173        H  0.77594874  0.32952325  0.32437541     0.14900
H174        H  0.82308638  0.36715442  0.32258215     0.14900
H175        H  0.70680227  0.27803959  0.17915150     0.13200
H176        H  0.72150435  0.26260789  0.23564705     0.13200
H177        H  0.87737879  0.42378550  0.17374672     0.13200
H178        H  0.89398994  0.40614432  0.22903925     0.13200
H179        H  0.78944708  0.35424515  0.18126969     0.26400
H180        H  0.80271005  0.33998295  0.23181523     0.26400
N181        N  0.71213879  0.40542362  0.76206956    -0.36300
N182        N  0.75762331  0.42564278  0.71902556    -0.56900
N183        N  0.74177276  0.37693373  0.67917778    -0.36300
N184        N  0.69556020  0.35667815  0.72136038    -0.56900
C185        C  0.72989605  0.42320148  0.77993084     0.27300
C186        C  0.69605985  0.38695884  0.78074907     0.27300
C187        C  0.76947251  0.38504116  0.66836771     0.27200
C188        C  0.73572344  0.34866110  0.66893142     0.27200
C189        C  0.75810464  0.44912542  0.73856530     0.35900
C190        C  0.77341746  0.43448930  0.69420714     0.35900
C191        C  0.67200328  0.35510065  0.74101269     0.35900
C192        C  0.68754138  0.34017479  0.69668709     0.35900
C193        C  0.72479937  0.41623744  0.81038294    -0.21600
C194        C  0.70334348  0.39331727  0.81090333    -0.21600
C195        C  0.78128373  0.36149173  0.65119035    -0.21600
C196        C  0.75982813  0.33855250  0.65138256    -0.21600
C197        C  0.77389204  0.47340680  0.72596676    -0.22700
C198        C  0.78334328  0.46420153  0.69751939    -0.22700
C199        C  0.64869500  0.33759196  0.72875467    -0.22700
C200        C  0.65858336  0.32810569  0.70050428    -0.22700
C201        C  0.74934756  0.44651862  0.76927396    -0.18000
C202        C  0.67324060  0.36635984  0.77111077    -0.18000
C203        C  0.70770514  0.33324021  0.67272964    -0.18000
C204        C  0.78277532  0.41422098  0.67136343    -0.18000
H205        H  0.73516355  0.42681476  0.83015589     0.14900
H206        H  0.69391248  0.38277927  0.83114949     0.14900
H207        H  0.80274108  0.36118642  0.63909445     0.14900
H208        H  0.76149668  0.31712827  0.63949316     0.14900
H209        H  0.77925449  0.49487563  0.73674345     0.13200
H210        H  0.79752669  0.47711394  0.68197041     0.13200
H211        H  0.62733000  0.33148369  0.73948107     0.13200
H212        H  0.64638356  0.31319498  0.68506204     0.13200
H213        H  0.70868619  0.40800667  0.73870983     0.26400
H214        H  0.72609358  0.39129699  0.68934847     0.26400
N215        N  0.77580489  0.87517772  0.27751526    -0.36300
N216        N  0.73658178  0.90148485  0.23099373    -0.56900
N217        N  0.75872094  0.85802917  0.18875012    -0.36300
N218        N  0.79812877  0.83181934  0.23427003    -0.56900
C219        C  0.76890303  0.90228659  0.29002486     0.27300
C220        C  0.80048151  0.86451329  0.29234613     0.27300
C221        C  0.74352397  0.87674202  0.16996620     0.27200
C222        C  0.77723472  0.84127476  0.17117143     0.27200
C223        C  0.72567356  0.91495952  0.25622079     0.35900
C224        C  0.71502170  0.90422101  0.20933673     0.35900
C225        C  0.80895070  0.81936757  0.26013383     0.35900
C226        C  0.80008934  0.81049062  0.21230932     0.35900
C227        C  0.78944207  0.90896927  0.31314530    -0.21600
C228        C  0.80932973  0.88506628  0.31466990    -0.21600
C229        C  0.75268480  0.87218313  0.14007874    -0.21600
C230        C  0.77418473  0.84981601  0.14083384    -0.21600
C231        C  0.69711694  0.92672132  0.25054888    -0.22700
C232        C  0.69025779  0.91971364  0.22071574    -0.22700
C233        C  0.81801059  0.78989048  0.25459815    -0.22700
C234        C  0.81239691  0.78425587  0.22415738    -0.22700
C235        C  0.74277072  0.91946334  0.28301604    -0.18000
C236        C  0.81366621  0.83571647  0.28749417    -0.18000
C237        C  0.79295082  0.81553803  0.18134785    -0.18000
C238        C  0.71875700  0.89453452  0.17897553    -0.18000
H239        H  0.78960088  0.92865774  0.32789175     0.14900
H240        H  0.82788337  0.88284337  0.33068876     0.14900
H241        H  0.74389277  0.88298713  0.11980762     0.14900
H242        H  0.78515802  0.83988285  0.12114972     0.14900
H243        H  0.68300130  0.93942612  0.26612372     0.13200
H244        H  0.66980165  0.92587832  0.20862225     0.13200
H245        H  0.82830413  0.77442717  0.27059928     0.13200
H246        H  0.81736723  0.76353143  0.21200536     0.13200
H247        H  0.76215063  0.86295807  0.26242317     0.26400
H248        H  0.75289037  0.85322778  0.21125324     0.26400
N249        N  0.75073895  0.89416248  0.69209673    -0.36300
N250        N  0.77376135  0.85338516  0.73770378    -0.56900
N251        N  0.72207489  0.86603094  0.77570530    -0.36300
N252        N  0.69763562  0.90620747  0.72954920    -0.56900
C253        C  0.77219136  0.87962846  0.67566020     0.27300
C254        C  0.73310510  0.90929941  0.67216348     0.27300
C255        C  0.73319586  0.84127144  0.78980626     0.27200
C256        C  0.69344244  0.86998966  0.78598995     0.27200
C257        C  0.79787673  0.85397485  0.71875812     0.35900
C258        C  0.78311311  0.84002687  0.76360740     0.35900
C259        C  0.69493232  0.92873721  0.70892689     0.35900
C260        C  0.67952821  0.91351162  0.75332331     0.35900
C261        C  0.76823654  0.88577994  0.64488837    -0.21600
C262        C  0.74366735  0.90471832  0.64270523    -0.21600
C263        C  0.71129081  0.82924450  0.80922432    -0.21600
C264        C  0.68620416  0.84753235  0.80695021    -0.21600
C265        C  0.82283073  0.84101048  0.73267365    -0.22700
C266        C  0.81350089  0.83230741  0.76128258    -0.22700
C267        C  0.67448624  0.95008921  0.71931052    -0.22700
C268        C  0.66469761  0.94041003  0.74750874    -0.22700
C269        C  0.79643223  0.86274557  0.68793916    -0.18000
C270        C  0.70975001  0.92951236  0.68031189    -0.18000
C271        C  0.67531775  0.89540421  0.77955566    -0.18000
C272        C  0.76340577  0.83090763  0.78728014    -0.18000
H273        H  0.78206687  0.87805564  0.62603314     0.14900
H274        H  0.73485815  0.91441407  0.62187402     0.14900
H275        H  0.71347440  0.80985265  0.82411720     0.14900
H276        H  0.66528666  0.84503513  0.81977274     0.14900
H277        H  0.84509899  0.83739607  0.72288612     0.13200
H278        H  0.82710274  0.82046430  0.77792211     0.13200
H279        H  0.66734524  0.97045731  0.70775855     0.13200
H280        H  0.64849671  0.95179977  0.76202589     0.13200
H281        H  0.75043731  0.89686271  0.71553494     0.26400
H282        H  0.73457379  0.88173027  0.76328013     0.26400
N283        N  0.28015513  0.80606248  0.22379493    -0.36300
N284        N  0.23660926  0.77692528  0.26485008    -0.56900
N285        N  0.25530075  0.81873624  0.31167070    -0.36300
N286        N  0.30001114  0.84676381  0.27202157    -0.56900
C287        C  0.27315185  0.78074881  0.20775744     0.27300
C288        C  0.30574569  0.81802209  0.21136337     0.27300
C289        C  0.23700596  0.79992762  0.32780962     0.27200
C290        C  0.27098721  0.83576168  0.33198740     0.27200
C291        C  0.22854173  0.76338454  0.23843718     0.35900
C292        C  0.21346906  0.77213605  0.28459712     0.35900
C293        C  0.31412625  0.86013464  0.24815216     0.35900
C294        C  0.30070149  0.86697931  0.29515050     0.35900
C295        C  0.29426992  0.77686624  0.18456747    -0.21600
C296        C  0.31489418  0.80031504  0.18691936    -0.21600
C297        C  0.24139705  0.80470543  0.35877451    -0.21600
C298        C  0.26294654  0.82731680  0.36142990    -0.21600
C299        C  0.20049921  0.74909144  0.24164807    -0.22700
C300        C  0.19074209  0.75500468  0.27086833    -0.22700
C301        C  0.32443436  0.88878639  0.25628582    -0.22700
C302        C  0.31587631  0.89315072  0.28616639    -0.22700
C303        C  0.24712820  0.76219149  0.21220905    -0.18000
C304        C  0.31962606  0.84580317  0.21991687    -0.18000
C305        C  0.28880402  0.86148785  0.32457823    -0.18000
C306        C  0.21343597  0.78197998  0.31524197    -0.18000
H307        H  0.29461105  0.75921179  0.16741791     0.14900
H308        H  0.33415389  0.80416718  0.17197562     0.14900
H309        H  0.22934139  0.79393857  0.37745220     0.14900
H310        H  0.27071152  0.83740353  0.38260036     0.14900
H311        H  0.18831420  0.73589011  0.22470538     0.13200
H312        H  0.16964557  0.74716247  0.28099911     0.13200
H313        H  0.33700226  0.90471597  0.24224127     0.13200
H314        H  0.32045191  0.91316269  0.29976705     0.13200
H315        H  0.26638425  0.81646669  0.23968230     0.26400
H316        H  0.25311054  0.82344166  0.28871406     0.26400
N317        N  0.22185994  0.81799793  0.83408851    -0.36300
N318        N  0.24394369  0.86252663  0.79149692    -0.56900
N319        N  0.19834602  0.84089353  0.74849238    -0.36300
N320        N  0.17457243  0.79748586  0.79167557    -0.56900
C321        C  0.24079648  0.83425468  0.85231055     0.27300
C322        C  0.20436617  0.80039668  0.85236147     0.27300
C323        C  0.20826842  0.86634474  0.73444422     0.27200
C324        C  0.17243404  0.83205830  0.73435736     0.27200
C325        C  0.26673298  0.86429597  0.81201287     0.35900
C326        C  0.25411704  0.87650903  0.76608165     0.35900
C327        C  0.17327118  0.77476404  0.81223833     0.35900
C328        C  0.16055642  0.78715961  0.76618065     0.35900
C329        C  0.23510335  0.82711556  0.88257703    -0.21600
C330        C  0.21201423  0.80579427  0.88262910    -0.21600
C331        C  0.18826382  0.87401407  0.71132847    -0.21600
C332        C  0.16561907  0.85232683  0.71126049    -0.21600
C333        C  0.29124514  0.88017781  0.79987070    -0.22700
C334        C  0.28323185  0.88790956  0.77064450    -0.22700
C335        C  0.15758397  0.75016367  0.80001966    -0.22700
C336        C  0.14940504  0.75810882  0.77081661    -0.22700
C337        C  0.26503609  0.85288986  0.84200527    -0.18000
C338        C  0.18533517  0.77638845  0.84215460    -0.18000
C339        C  0.15731489  0.80408524  0.73908209    -0.18000
C340        C  0.23676414  0.88046086  0.73943011    -0.18000
H341        H  0.24701250  0.83564694  0.90246494     0.14900
H342        H  0.20283564  0.79450868  0.90258063     0.14900
H343        H  0.19040846  0.89262792  0.69539187     0.14900
H344        H  0.14692963  0.85095987  0.69525151     0.14900
H345        H  0.31259570  0.88567656  0.81092114     0.13200
H346        H  0.29713613  0.90060496  0.75466541     0.13200
H347        H  0.15263753  0.72870213  0.81093962     0.13200
H348        H  0.13696721  0.74406364  0.75475986     0.13200
H349        H  0.22413111  0.81527843  0.81079470     0.26400
H350        H  0.21103282  0.82776933  0.76310793     0.26400
N351        N  0.22017984  0.31979028  0.82190148    -0.36300
N352        N  0.24423304  0.27740397  0.77739803    -0.56900
N353        N  0.19438164  0.29062200  0.73651927    -0.36300
N354        N  0.17118976  0.33431409  0.78000496    -0.56900
C355        C  0.24815868  0.31514251  0.83371438     0.27300
C356        C  0.20879167  0.34462849  0.83569831     0.27300
C357        C  0.21285900  0.27490351  0.71770792     0.27200
C358        C  0.17449896  0.30567366  0.71872425     0.27200
C359        C  0.26317064  0.27171506  0.80084306     0.35900
C360        C  0.24883626  0.25539693  0.75655770     0.35900
C361        C  0.16190144  0.35064268  0.80426588     0.35900
C362        C  0.14857613  0.33546752  0.75925615     0.35900
C363        C  0.25424719  0.33675381  0.85593918    -0.21600
C364        C  0.22934384  0.35520977  0.85735743    -0.21600
C365        C  0.20425160  0.27953149  0.68765400    -0.21600
C366        C  0.18006822  0.29896364  0.68828190    -0.21600
C367        C  0.27991031  0.24595523  0.79493160    -0.22700
C368        C  0.27062917  0.23544023  0.76691599    -0.22700
C369        C  0.13326106  0.36230091  0.79888185    -0.22700
C370        C  0.12476876  0.35258092  0.77035903    -0.22700
C371        C  0.26800849  0.29137157  0.82576950    -0.18000
C372        C  0.18007756  0.35764641  0.82987860    -0.18000
C373        C  0.15067064  0.32435698  0.72915349    -0.18000
C374        C  0.23621388  0.25516234  0.72697553    -0.18000
H375        H  0.27447942  0.33894654  0.86983906     0.14900
H376        H  0.22683536  0.37438005  0.87253194     0.14900
H377        H  0.21428724  0.26981604  0.66735914     0.14900
H378        H  0.16789720  0.30711321  0.66852006     0.14900
H379        H  0.29747290  0.23621005  0.80901210     0.13200
H380        H  0.27971992  0.21603364  0.75502230     0.13200
H381        H  0.12019727  0.37696370  0.81359876     0.13200
H382        H  0.10393595  0.35831413  0.75869656     0.13200
H383        H  0.20841388  0.30534201  0.80720185     0.26400
H384        H  0.19331929  0.28857645  0.76016433     0.26400
C385        C  0.04424527  0.36754760  0.57260328     0.01600
C386        C  0.06709419  0.34553028  0.57409604     0.04400
C387        C  0.08318109  0.34126108  0.60140950    -0.11600
C388        C  0.07496105  0.35735788  0.62794365     0.23700
C389        C  0.05121045  0.37846230  0.62683309    -0.12200
C390        C  0.03628504  0.38402263  0.59903327     0.05100
C391        C  0.09110975  0.35130414  0.65694452     0.27600
C392        C  0.08538462  0.32401114  0.67269627    -0.12900
C393        C  0.10436376  0.31545673  0.69690476     0.05700
C394        C  0.12816842  0.33486388  0.70632917    -0.08900
C395        C  0.13212751  0.36339098  0.69239301     0.06500
C396        C  0.11405372  0.37133903  0.66727402    -0.13200
Br397      Br  0.03902994  0.39944429  0.66346881    -0.05300
Br398      Br  0.07657166  0.32131154  0.53872924     0.00300
Br399      Br  0.09864626  0.27668829  0.71640171     0.00800
Br400      Br  0.12193002  0.40880377  0.64593508    -0.03600
Br401      Br  0.00404952  0.41329501  0.59758040     0.00900
Br402      Br  0.11719484  0.31398704  0.60232601    -0.02900
Br403      Br  0.05209520  0.29799351  0.66029494    -0.03800
Br404      Br  0.16325588  0.39094633  0.70692721     0.00200
C405        C  0.18899717  0.32944519  0.33562542     0.01600
C406        C  0.17080074  0.30504624  0.34607447     0.04400
C407        C  0.14816655  0.31006968  0.36810022    -0.11600
C408        C  0.14151959  0.33985302  0.37738463     0.23700
C409        C  0.15854891  0.36442267  0.36559366    -0.12200
C410        C  0.18328569  0.35906264  0.34612246     0.05100
C411        C  0.11695269  0.34545776  0.39980970     0.27600
C412        C  0.08628914  0.34176895  0.39117243    -0.12900
C413        C  0.06306439  0.34763600  0.41232072     0.05700
C414        C  0.07033790  0.35996818  0.44119312    -0.08900
C415        C  0.10099038  0.36381947  0.44978391     0.06500
C416        C  0.12423922  0.35527213  0.42959877    -0.13200
Br417      Br  0.14795398  0.40548257  0.37606583    -0.05300
Br418      Br  0.17706725  0.26467216  0.33046584     0.00300
Br419      Br  0.02130703  0.33937151  0.40114795     0.00800
Br420      Br  0.16609307  0.35653016  0.44281523    -0.03600
Br421      Br  0.21062137  0.39199159  0.33578793     0.00900
Br422      Br  0.12722229  0.27608410  0.38656303    -0.02900
Br423      Br  0.07601373  0.32986530  0.34997116    -0.03800
Br424      Br  0.11123990  0.38018781  0.48935839     0.00200
C425        C  0.86854043  0.38660795  0.28381084     0.01600
C426        C  0.88840223  0.36457654  0.29534817     0.04400
C427        C  0.90827558  0.37194163  0.31936802    -0.11600
C428        C  0.90807404  0.40122599  0.33217774     0.23700
C429        C  0.88962176  0.42377956  0.31942147    -0.12200
C430        C  0.86976019  0.41646494  0.29529450     0.05100
C431        C  0.92388531  0.40654928  0.36157272     0.27600
C432        C  0.90809329  0.40072884  0.38896284    -0.12900
C433        C  0.92385185  0.40021215  0.41679127     0.05700
C434        C  0.95551643  0.40519952  0.41733448    -0.08900
C435        C  0.97095266  0.41342384  0.39024434     0.06500
C436        C  0.95506910  0.41404771  0.36231965    -0.13200
Br437      Br  0.89058302  0.46417376  0.33613777    -0.05300
Br438      Br  0.88725403  0.32388399  0.27922389     0.00300
Br439      Br  0.90202352  0.39271632  0.45433953     0.00800
Br440      Br  0.97603319  0.42357031  0.32480637    -0.03600
Br441      Br  0.84262491  0.44669640  0.27952869     0.00900
Br442      Br  0.93475398  0.34151110  0.33594714    -0.02900
Br443      Br  0.86505917  0.39171391  0.38805261    -0.03800
Br444      Br  0.01406842  0.42181023  0.39087743     0.00200
C445        C  0.93205153  0.40982736  0.54910919     0.01600
C446        C  0.91758175  0.43829418  0.54828301     0.04400
C447        C  0.89357463  0.44445515  0.56860660    -0.11600
C448        C  0.88342285  0.42201986  0.58912597     0.23700
C449        C  0.89809995  0.39387704  0.59034309    -0.12200
C450        C  0.92292007  0.38814309  0.57118975     0.05100
C451        C  0.85726937  0.42739039  0.60964309     0.27600
C452        C  0.86229697  0.43080073  0.64120397    -0.12900
C453        C  0.83805406  0.42678967  0.66174754     0.05700
C454        C  0.80815361  0.42282033  0.65050905    -0.08900
C455        C  0.80278783  0.42402367  0.61879573     0.06500
C456        C  0.82739578  0.42462824  0.59838077    -0.13200
Br457      Br  0.88376789  0.36273404  0.61806696    -0.05300
Br458      Br  0.92951701  0.46872536  0.51890893     0.00300
Br459      Br  0.84671359  0.42352828  0.70480262     0.00800
Br460      Br  0.82028685  0.41889051  0.55530080    -0.03600
Br461      Br  0.94549140  0.35123510  0.57741717     0.00900
Br462      Br  0.87434800  0.48352850  0.56845039    -0.02900
Br463      Br  0.90289282  0.43884805  0.65608545    -0.03800
Br464      Br  0.76168489  0.42365517  0.60339109     0.00200
C465        C  0.69147623  0.19352397  0.53760636     0.01600
C466        C  0.66425329  0.20030360  0.55359139     0.04400
C467        C  0.66432517  0.22272861  0.57651182    -0.11600
C468        C  0.69142849  0.23798076  0.58419458     0.23700
C469        C  0.71854844  0.23122044  0.56883782    -0.12200
C470        C  0.71855644  0.20983671  0.54506444     0.05100
C471        C  0.69158985  0.26205193  0.60775070     0.27600
C472        C  0.68881215  0.29252112  0.59885570    -0.12900
C473        C  0.69273220  0.31574232  0.62047269     0.05700
C474        C  0.69989468  0.30854489  0.65096498    -0.08900
C475        C  0.70160650  0.27797995  0.66008418     0.06500
C476        C  0.69703133  0.25474876  0.63853159    -0.13200
Br477      Br  0.75595985  0.25126536  0.58097388    -0.05300
Br478      Br  0.62666253  0.17865500  0.54573361     0.00300
Br479      Br  0.68886483  0.35750180  0.60823187     0.00800
Br480      Br  0.69902851  0.21288109  0.65078709    -0.03600
Br481      Br  0.75592694  0.20504533  0.52219829     0.00900
Br482      Br  0.62741183  0.23253563  0.59805944    -0.02900
Br483      Br  0.68052902  0.30229567  0.55677411    -0.03800
Br484      Br  0.71206661  0.26793856  0.70159312     0.00200
C485        C  0.70354141  0.18606076  0.40753577     0.01600
C486        C  0.71038718  0.21657130  0.41418460     0.04400
C487        C  0.71719786  0.23692686  0.39044041    -0.11600
C488        C  0.71638116  0.22697372  0.35986742     0.23700
C489        C  0.70761323  0.19690013  0.35309033    -0.12200
C490        C  0.70124781  0.17642174  0.37691604     0.05100
C491        C  0.72663697  0.24750511  0.33504267     0.27600
C492        C  0.70724220  0.27006166  0.32368350    -0.12900
C493        C  0.71758959  0.28991538  0.30070452     0.05700
C494        C  0.74703966  0.28666728  0.28845377    -0.08900
C495        C  0.76621306  0.26380942  0.29952008     0.06500
C496        C  0.75622827  0.24462023  0.32310251    -0.13200
Br497      Br  0.70541417  0.18365450  0.31112620    -0.05300
Br498      Br  0.70942975  0.23062420  0.45584918     0.00300
Br499      Br  0.69194054  0.32225601  0.28679717     0.00800
Br500      Br  0.78340109  0.21482765  0.33969688    -0.03600
Br501      Br  0.69065536  0.13493130  0.36759347     0.00900
Br502      Br  0.72880181  0.27815130  0.39984584    -0.02900
Br503      Br  0.66669551  0.27389280  0.33993482    -0.03800
Br504      Br  0.80623569  0.25879605  0.28223483     0.00200
C505        C  0.70293157  0.05789116  0.41431565     0.01600
C506        C  0.67844713  0.04904837  0.39492787     0.04400
C507        C  0.68268371  0.02646109  0.37259580    -0.11600
C508        C  0.71115854  0.01280431  0.36913274     0.23700
C509        C  0.73544244  0.02117741  0.38814938    -0.12200
C510        C  0.73141698  0.04309777  0.41100554     0.05100
C511        C  0.71597278  0.98909684  0.34580038     0.27600
C512        C  0.71203825  0.95840303  0.35367805    -0.12900
C513        C  0.72028824  0.93564816  0.33293167     0.05700
C514        C  0.73302706  0.94356749  0.30447068    -0.08900
C515        C  0.73622803  0.97436561  0.29628124     0.06500
C516        C  0.72760173  0.99709075  0.31693300    -0.13200
Br517      Br  0.77458030  0.00230828  0.38240250    -0.05300
Br518      Br  0.63899761  0.06780492  0.39734093     0.00300
Br519      Br  0.71401816  0.89360453  0.34340553     0.00800
Br520      Br  0.73288790  0.03925907  0.30641878    -0.03600
Br521      Br  0.76548153  0.05073568  0.43806283     0.00900
Br522      Br  0.64968104  0.01421561  0.34612866    -0.02900
Br523      Br  0.69649553  0.94770152  0.39346005    -0.03800
Br524      Br  0.75339919  0.98552622  0.25724685     0.00200
C525        C  0.68718072  0.06434489  0.54262806     0.01600
C526        C  0.69443082  0.03401122  0.53621907     0.04400
C527        C  0.69379095  0.01229999  0.55963438    -0.11600
C528        C  0.68518408  0.02069193  0.58944413     0.23700
C529        C  0.67592067  0.05058542  0.59542186    -0.12200
C530        C  0.67740970  0.07253476  0.57215086     0.05100
C531        C  0.68937554  0.99894193  0.61484912     0.27600
C532        C  0.66854556  0.97489200  0.61948344    -0.12900
C533        C  0.67523812  0.95188766  0.64060502     0.05700
C534        C  0.70194508  0.95381756  0.65829242    -0.08900
C535        C  0.72192350  0.97871575  0.65475586     0.06500
C536        C  0.71594999  0.00091584  0.63271967    -0.13200
Br537      Br  0.66200575  0.06142416  0.63572190    -0.05300
Br538      Br  0.70483972  0.02208808  0.49518267     0.00300
Br539      Br  0.64887540  0.91691078  0.64412446     0.00800
Br540      Br  0.74483798  0.03349320  0.62617546    -0.03600
Br541      Br  0.66815268  0.11414002  0.58128753     0.00900
Br542      Br  0.70584839  0.97123190  0.55113406    -0.02900
Br543      Br  0.63115471  0.97344122  0.59658584    -0.03800
Br544      Br  0.75778772  0.98214848  0.67993980     0.00200
C545        C  0.18631274  0.77613387  0.33469949     0.01600
C546        C  0.18213514  0.74815733  0.34963859     0.04400
C547        C  0.15778173  0.74420802  0.37020257    -0.11600
C548        C  0.13785148  0.76832158  0.37606358     0.23700
C549        C  0.14175374  0.79608195  0.36069240    -0.12200
C550        C  0.16582949  0.79993379  0.33996512     0.05100
C551        C  0.11368399  0.76529607  0.39951693     0.27600
C552        C  0.08405527  0.75623997  0.39113811    -0.12900
C553        C  0.06048977  0.75643854  0.41294527     0.05700
C554        C  0.06648666  0.76605640  0.44309189    -0.08900
C555        C  0.09653089  0.77339000  0.45176454     0.06500
C556        C  0.12001346  0.77330719  0.42998626    -0.13200
Br557      Br  0.11459750  0.82917488  0.36883591    -0.05300
Br558      Br  0.21055495  0.71590475  0.34292525     0.00300
Br559      Br  0.01982559  0.74519453  0.40095706     0.00800
Br560      Br  0.16067486  0.78557466  0.44144870    -0.03600
Br561      Br  0.17127998  0.83818833  0.31921883     0.00900
Br562      Br  0.15204135  0.70618207  0.39107981    -0.02900
Br563      Br  0.07566086  0.74520440  0.34934237    -0.03800
Br564      Br  0.10568195  0.78283492  0.49373720     0.00200
C565        C  0.05575551  0.77807129  0.57434264     0.01600
C566        C  0.07652601  0.80219354  0.58089975     0.04400
C567        C  0.09359207  0.80217815  0.60810963    -0.11600
C568        C  0.09103560  0.77792711  0.62874549     0.23700
C569        C  0.07191311  0.75318670  0.62181037    -0.12200
C570        C  0.05369385  0.75347938  0.59529701     0.05100
C571        C  0.10708478  0.77964532  0.65862975     0.27600
C572        C  0.13837832  0.77340509  0.66048207    -0.12900
C573        C  0.15435261  0.77940493  0.68768313     0.05700
C574        C  0.13913299  0.79166657  0.71315010    -0.08900
C575        C  0.10748109  0.79595073  0.71198167     0.06500
C576        C  0.09147727  0.78998575  0.68475279    -0.13200
Br577      Br  0.07061154  0.71904535  0.64932180    -0.05300
Br578      Br  0.08259156  0.83595327  0.55333251     0.00300
Br579      Br  0.19747978  0.77214455  0.68983049     0.00800
Br580      Br  0.04842370  0.79759139  0.68261817    -0.03600
Br581      Br  0.02416799  0.72111175  0.59032202     0.00900
Br582      Br  0.12028716  0.83595942  0.61777013    -0.02900
Br583      Br  0.15955008  0.75803487  0.62524336    -0.03800
Br584      Br  0.08650939  0.81176748  0.74710853     0.00200
C585        C  0.93257759  0.80231742  0.56196933     0.01600
C586        C  0.93958513  0.80315027  0.59334555     0.04400
C587        C  0.91731254  0.81167376  0.61462952    -0.11600
C588        C  0.88846428  0.82073025  0.60443609     0.23700
C589        C  0.88146911  0.81995059  0.57305336    -0.12200
C590        C  0.90335165  0.81021290  0.55190228     0.05100
C591        C  0.86550035  0.83127350  0.62665295     0.27600
C592        C  0.84224705  0.81138803  0.63643455    -0.12900
C593        C  0.81945282  0.82185131  0.65614492     0.05700
C594        C  0.82055959  0.85188617  0.66706458    -0.08900
C595        C  0.84455011  0.87137934  0.65838257     0.06500
C596        C  0.86667338  0.86128591  0.63766949    -0.13200
Br597      Br  0.84207451  0.83279770  0.55910550    -0.05300
Br598      Br  0.98003366  0.79400188  0.60710482     0.00300
Br599      Br  0.78636025  0.79525598  0.66782069     0.00800
Br600      Br  0.89834019  0.88860621  0.62399731    -0.03600
Br601      Br  0.89329422  0.80736002  0.50916203     0.00900
Br602      Br  0.92613846  0.81097791  0.65777215    -0.02900
Br603      Br  0.84188227  0.76978021  0.62292625    -0.03800
Br604      Br  0.84725778  0.91160407  0.67544331     0.00200
C605        C  0.83434056  0.82313359  0.31137015     0.01600
C606        C  0.82247225  0.81351298  0.33977103     0.04400
C607        C  0.84218077  0.80403622  0.36318085    -0.11600
C608        C  0.87387277  0.80430970  0.35847048     0.23700
C609        C  0.88563454  0.81224231  0.32959518    -0.12200
C610        C  0.86600316  0.82171562  0.30614018     0.05100
C611        C  0.89498676  0.79938490  0.38459505     0.27600
C612        C  0.90446841  0.82430558  0.40230818    -0.12900
C613        C  0.92548914  0.82057075  0.42624290     0.05700
C614        C  0.93750096  0.79147687  0.43285275    -0.08900
C615        C  0.92694672  0.76625300  0.41541322     0.06500
C616        C  0.90588855  0.77035366  0.39143909    -0.13200
Br617      Br  0.92889331  0.81084150  0.32260915    -0.05300
Br618      Br  0.77916450  0.81358953  0.34670629     0.00300
Br619      Br  0.93594666  0.85592741  0.45037475     0.00800
Br620      Br  0.89170413  0.73623490  0.36760734    -0.03600
Br621      Br  0.88281308  0.83416136  0.26736051     0.00900
Br622      Br  0.82600314  0.79113718  0.40202549    -0.02900
Br623      Br  0.88807512  0.86384232  0.39361943    -0.03800
Br624      Br  0.94136120  0.72578047  0.42297374     0.00200
C625        C  0.30855992  0.12403995  0.46137549     0.01600
C626        C  0.28300063  0.14089115  0.45134401     0.04400
C627        C  0.28648894  0.16305635  0.42858026    -0.11600
C628        C  0.31467121  0.16727189  0.41398886     0.23700
C629        C  0.33985518  0.15019555  0.42291449    -0.12200
C630        C  0.33720951  0.12925891  0.44702354     0.05100
C631        C  0.31714815  0.18918946  0.38853628     0.27600
C632        C  0.30399257  0.18192452  0.36011667    -0.12900
C633        C  0.30012951  0.20465081  0.33813698     0.05700
C634        C  0.31168451  0.23405213  0.34360033    -0.08900
C635        C  0.32805770  0.24030714  0.37054224     0.06500
C636        C  0.32984766  0.21821532  0.39349781    -0.13200
Br637      Br  0.37782321  0.15513579  0.40116949    -0.05300
Br638      Br  0.24248577  0.13461165  0.46770926     0.00300
Br639      Br  0.27716538  0.19605193  0.30156993     0.00800
Br640      Br  0.34792556  0.22827659  0.43234473    -0.03600
Br641      Br  0.37330235  0.10740643  0.45853646     0.00900
Br642      Br  0.25250008  0.18818594  0.41722622    -0.02900
Br643      Br  0.29035309  0.14101980  0.35195035    -0.03800
Br644      Br  0.34614076  0.27985144  0.37664241     0.00200
C645        C  0.24859173  0.23368288  0.70403437     0.01600
C646        C  0.27705696  0.23933454  0.69014288     0.04400
C647        C  0.28807036  0.21935594  0.66774283    -0.11600
C648        C  0.27070473  0.19370933  0.65931253     0.23700
C649        C  0.24249978  0.18787664  0.67350803    -0.12200
C650        C  0.23144788  0.20783023  0.69578930     0.05100
C651        C  0.28151626  0.17284225  0.63520680     0.27600
C652        C  0.27355112  0.17800726  0.60457986    -0.12900
C653        C  0.27994116  0.15609147  0.58224342     0.05700
C654        C  0.29356666  0.12848614  0.59055827    -0.08900
C655        C  0.30295744  0.12406695  0.62105304     0.06500
C656        C  0.29719588  0.14640419  0.64324187    -0.13200
Br657      Br  0.21897094  0.15247077  0.66221927    -0.05300
Br658      Br  0.30068596  0.27464679  0.70150525     0.00300
Br659      Br  0.27061484  0.16440901  0.54011371     0.00800
Br660      Br  0.30944793  0.14045401  0.68507435    -0.03600
Br661      Br  0.19285374  0.19969597  0.71525735     0.00900
Br662      Br  0.32675331  0.22704690  0.64837484    -0.02900
Br663      Br  0.25271615  0.21466138  0.59357406    -0.03800
Br664      Br  0.32137304  0.08657896  0.63327944     0.00200
C665        C  0.24935395  0.89962907  0.71473137     0.01600
C666        C  0.24613816  0.93126347  0.71597611     0.04400
C667        C  0.25582438  0.94907613  0.69128022    -0.11600
C668        C  0.26909700  0.93526380  0.66558869     0.23700
C669        C  0.27344424  0.90375078  0.66484893    -0.12200
C670        C  0.26339821  0.88587615  0.68940486     0.05100
C671        C  0.27665018  0.95402830  0.63877627     0.27600
C672        C  0.25409333  0.95959892  0.61697016    -0.12900
C673        C  0.25913529  0.98126564  0.59404710     0.05700
C674        C  0.28741349  0.99722605  0.59249313    -0.08900
C675        C  0.31079370  0.98976096  0.61350425     0.06500
C676        C  0.30512943  0.96844900  0.63671301    -0.13200
Br677      Br  0.29250002  0.88522483  0.62994483    -0.05300
Br678      Br  0.22768260  0.94996417  0.75111371     0.00300
Br679      Br  0.22652397  0.98787676  0.56518361     0.00800
Br680      Br  0.33585404  0.95956392  0.66679403    -0.03600
Br681      Br  0.26838474  0.84251154  0.68834168     0.00900
Br682      Br  0.25008190  0.99235530  0.69203152    -0.02900
Br683      Br  0.21576969  0.93779776  0.61938470    -0.03800
Br684      Br  0.35039441  0.00913236  0.61250683     0.00200
C685        C  0.30297683  0.99518645  0.46600120     0.01600
C686        C  0.29325433  0.96567610  0.47379124     0.04400
C687        C  0.29147813  0.94304608  0.45125982    -0.11600
C688        C  0.30089868  0.94952582  0.42124213     0.23700
C689        C  0.31206005  0.97859962  0.41377668    -0.12200
C690        C  0.31250801  0.00159844  0.43598176     0.05100
C691        C  0.29774315  0.92636310  0.39701922     0.27600
C692        C  0.32117677  0.90549129  0.39174035    -0.12900
C693        C  0.31887535  0.88490578  0.36731017     0.05700
C694        C  0.29285430  0.88481134  0.34863434    -0.08900
C695        C  0.26920479  0.90534869  0.35427634     0.06500
C696        C  0.27162490  0.92606984  0.37847511    -0.13200
Br697      Br  0.32606879  0.98690110  0.37285053    -0.05300
Br698      Br  0.28348627  0.95592148  0.51550526     0.00300
Br699      Br  0.35100134  0.85657459  0.35950737     0.00800
Br700      Br  0.23895684  0.95375218  0.38670007    -0.03600
Br701      Br  0.32440201  0.04224778  0.42480041     0.00900
Br702      Br  0.27529446  0.90346668  0.46114263    -0.02900
Br703      Br  0.35594518  0.90476982  0.41846547    -0.03800
Br704      Br  0.23344449  0.90494076  0.32877941     0.00200
C705        C  0.82866078  0.55711783  0.03677454     0.01600
C706        C  0.80228264  0.53957733  0.04429461     0.04400
C707        C  0.80433462  0.51540943  0.06499071    -0.11600
C708        C  0.83240974  0.50799420  0.07801756     0.23700
C709        C  0.85855281  0.52509384  0.07102844    -0.12200
C710        C  0.85675363  0.54990873  0.05096421     0.05100
C711        C  0.83363564  0.48281612  0.10019799     0.27600
C712        C  0.82892971  0.48881158  0.13139554    -0.12900
C713        C  0.82412642  0.46475579  0.15184267     0.05700
C714        C  0.82415444  0.43459947  0.14105479    -0.08900
C715        C  0.83067234  0.42862380  0.11010424     0.06500
C716        C  0.83546421  0.45273982  0.08970676    -0.13200
Br717      Br  0.89678088  0.51437892  0.08950617    -0.05300
Br718      Br  0.76261487  0.54710472  0.02681345     0.00300
Br719      Br  0.81523047  0.47341373  0.19410267     0.00800
Br720      Br  0.84291875  0.44483168  0.04704848    -0.03600
Br721      Br  0.89292084  0.57454701  0.04528434     0.00900
Br722      Br  0.76839947  0.49219174  0.07612814    -0.02900
Br723      Br  0.82712229  0.53017863  0.14556887    -0.03800
Br724      Br  0.83164263  0.38741086  0.09543917     0.00200
C725        C  0.82232036  0.68761248  0.03851952     0.01600
C726        C  0.81561272  0.71776220  0.03075722     0.04400
C727        C  0.81412303  0.73994915  0.05371291    -0.11600
C728        C  0.81922400  0.73186142  0.08435186     0.23700
C729        C  0.82670848  0.70189487  0.09195803    -0.12200
C730        C  0.82812541  0.67972212  0.06904757     0.05100
C731        C  0.81296157  0.75366308  0.10904132     0.27600
C732        C  0.83646758  0.77169994  0.12148003    -0.12900
C733        C  0.83026334  0.79126595  0.14599639     0.05700
C734        C  0.80065365  0.79247630  0.15814632    -0.08900
C735        C  0.77725092  0.77421898  0.14577917     0.06500
C736        C  0.78333490  0.75508945  0.12104167    -0.13200
Br737      Br  0.83349284  0.69110202  0.13405908    -0.05300
Br738      Br  0.80802956  0.72852370  0.98880847     0.00300
Br739      Br  0.86184395  0.81720908  0.16230930     0.00800
Br740      Br  0.75102123  0.73101011  0.10318410    -0.03600
Br741      Br  0.83582500  0.63812999  0.07971833     0.00900
Br742      Br  0.80392509  0.78111763  0.04355775    -0.02900
Br743      Br  0.87684818  0.76984159  0.10454625    -0.03800
Br744      Br  0.73673511  0.77563458  0.16260752     0.00200
C745        C  0.77449870  0.80783487  0.80908698     0.01600
C746        C  0.78320779  0.81639001  0.83885647     0.04400
C747        C  0.79454010  0.79455704  0.85908432    -0.11600
C748        C  0.79679671  0.76415827  0.84964279     0.23700
C749        C  0.78896800  0.75579625  0.81963354    -0.12200
C750        C  0.77772368  0.77755924  0.79939383     0.05100
C751        C  0.80284960  0.74019097  0.87228547     0.27600
C752        C  0.83230931  0.72911210  0.87663791    -0.12900
C753        C  0.83723543  0.70461687  0.89659457     0.05700
C754        C  0.81239587  0.69124407  0.91275443    -0.08900
C755        C  0.78275447  0.70348215  0.90862960     0.06500
C756        C  0.77822673  0.72750280  0.88825034    -0.13200
Br757      Br  0.79273575  0.71417933  0.80675483    -0.05300
Br758      Br  0.77932121  0.85791449  0.85189622     0.00300
Br759      Br  0.87822966  0.68965860  0.90012470     0.00800
Br760      Br  0.73781326  0.74321255  0.88150513    -0.03600
Br761      Br  0.76585014  0.76568381  0.75864770     0.00900
Br762      Br  0.80639978  0.80589543  0.89993956    -0.02900
Br763      Br  0.86571181  0.74754615  0.85457316    -0.03800
Br764      Br  0.74729928  0.68928874  0.93098547     0.00200
C765        C  0.82181439  0.55962348  0.90890463     0.01600
C766        C  0.80617983  0.53213781  0.91460146     0.04400
C767        C  0.79890067  0.51264977  0.89037947    -0.11600
C768        C  0.80733683  0.52053086  0.86047044     0.23700
C769        C  0.82585810  0.54613392  0.85509351    -0.12200
C770        C  0.83349038  0.56559193  0.87943012     0.05100
C771        C  0.79410677  0.50329701  0.83481718     0.27600
C772        C  0.80867483  0.47731731  0.82373858    -0.12900
C773        C  0.79396313  0.45883846  0.80215821     0.05700
C774        C  0.76472454  0.46641482  0.79169840    -0.08900
C775        C  0.75038314  0.49268579  0.80235198     0.06500
C776        C  0.76518456  0.51127629  0.82379314    -0.13200
Br777      Br  0.83909979  0.55523752  0.81410855    -0.05300
Br778      Br  0.79507696  0.52073573  0.95561046     0.00300
Br779      Br  0.81324709  0.42244872  0.78776175     0.00800
Br780      Br  0.74563652  0.54729780  0.83878507    -0.03600
Br781      Br  0.85823593  0.60110065  0.87166554     0.00900
Br782      Br  0.77595005  0.47582113  0.89775032    -0.02900
Br783      Br  0.84826087  0.46668893  0.83894122    -0.03800
Br784      Br  0.71029980  0.50266092  0.78800655     0.00200
C785        C  0.69486776  0.90092115  0.15609026     0.01600
C786        C  0.69276083  0.92970962  0.14245229     0.04400
C787        C  0.66982507  0.93525610  0.12084780    -0.11600
C788        C  0.64933505  0.91188847  0.11269476     0.23700
C789        C  0.65196340  0.88294939  0.12578836    -0.12200
C790        C  0.67448404  0.87754867  0.14765067     0.05100
C791        C  0.62371924  0.91766410  0.09176796     0.27600
C792        C  0.59510493  0.92487148  0.10403098    -0.12900
C793        C  0.56934876  0.92503131  0.08509472     0.05700
C794        C  0.57221031  0.91804125  0.05381976    -0.08900
C795        C  0.60120038  0.91282164  0.04125066     0.06500
C796        C  0.62690718  0.91227693  0.06026690    -0.13200
Br797      Br  0.62422004  0.85081880  0.11400789    -0.05300
Br798      Br  0.72139625  0.96126286  0.15330665     0.00300
Br799      Br  0.52995810  0.93249083  0.10262627     0.00800
Br800      Br  0.66619193  0.90233571  0.04366040    -0.03600
Br801      Br  0.67678125  0.83829140  0.16677696     0.00900
Br802      Br  0.66609349  0.97474815  0.10264200    -0.02900
Br803      Br  0.59107092  0.93227961  0.14729417    -0.03800
Br804      Br  0.60579226  0.90692540  0.99794504     0.00200
C805        C  0.44516587  0.89450026  0.07826888     0.01600
C806        C  0.43384936  0.86479968  0.08480258     0.04400
C807        C  0.41341049  0.86010761  0.10904587    -0.11600
C808        C  0.40493820  0.88434714  0.12783176     0.23700
C809        C  0.41671764  0.91353505  0.12244241    -0.12200
C810        C  0.43645178  0.91883062  0.09758314     0.05100
C811        C  0.38320509  0.87872258  0.15307474     0.27600
C812        C  0.35175576  0.88060651  0.14758615    -0.12900
C813        C  0.33097096  0.87192795  0.17039515     0.05700
C814        C  0.34158065  0.85984751  0.19816176    -0.08900
C815        C  0.37309334  0.85831922  0.20377211     0.06500
C816        C  0.39385787  0.86835116  0.18146572    -0.13200
Br817      Br  0.40555903  0.94613626  0.14951266    -0.05300
Br818      Br  0.44471889  0.82956779  0.06084902     0.00300
Br819      Br  0.28788527  0.87561353  0.16329069     0.00800
Br820      Br  0.43699163  0.86632439  0.18892552    -0.03600
Br821      Br  0.45176838  0.95954541  0.09147611     0.00900
Br822      Br  0.39606443  0.82029322  0.11644861    -0.02900
Br823      Br  0.33730792  0.89290386  0.10795943    -0.03800
Br824      Br  0.38785161  0.84032494  0.24096046     0.00200
C825        C  0.42095954  0.89397205  0.95358340     0.01600
C826        C  0.41980439  0.90279470  0.92268430     0.04400
C827        C  0.39337546  0.89716798  0.90537361    -0.11600
C828        C  0.36789555  0.88301195  0.91895993     0.23700
C829        C  0.36855677  0.87536841  0.95013682    -0.12200
C830        C  0.39503097  0.88079259  0.96739671     0.05100
C831        C  0.34091586  0.87501061  0.90013861     0.27600
C832        C  0.31606592  0.89482374  0.89834343    -0.12900
C833        C  0.29090274  0.88733813  0.87986889     0.05700
C834        C  0.29051263  0.86000985  0.86322831    -0.08900
C835        C  0.31530055  0.84015722  0.86513787     0.06500
C836        C  0.34039495  0.84758364  0.88364262    -0.13200
Br837      Br  0.33308001  0.85739425  0.96904644    -0.05300
Br838      Br  0.45478384  0.92159164  0.90372541     0.00300
Br839      Br  0.25716082  0.91464903  0.87672178     0.00800
Br840      Br  0.37438428  0.82044377  0.88612511    -0.03600
Br841      Br  0.39514838  0.87140634  0.01029838     0.00900
Br842      Br  0.39204762  0.90835903  0.86285051    -0.02900
Br843      Br  0.31685506  0.93237140  0.92084561    -0.03800
Br844      Br  0.31525133  0.80330979  0.84140726     0.00200
C845        C  0.55061844  0.91311884  0.92799996     0.01600
C846        C  0.55164086  0.93927392  0.90909077     0.04400
C847        C  0.57135723  0.94046358  0.88365131    -0.11600
C848        C  0.59000105  0.91574527  0.87671014     0.23700
C849        C  0.58942507  0.88991395  0.89535299    -0.12200
C850        C  0.57010583  0.88847051  0.92089520     0.05100
C851        C  0.61031022  0.91610222  0.84964015     0.27600
C852        C  0.60038456  0.90267004  0.82214399    -0.12900
C853        C  0.62140885  0.89652531  0.79876059     0.05700
C854        C  0.65229465  0.90433255  0.80266113    -0.08900
C855        C  0.66186689  0.91933862  0.82947140     0.06500
C856        C  0.64087807  0.92532587  0.85287111    -0.13200
Br857      Br  0.61551940  0.85620894  0.88546777    -0.05300
Br858      Br  0.52551800  0.97342301  0.91642205     0.00300
Br859      Br  0.60844941  0.87537845  0.76244107     0.00800
Br860      Br  0.65414971  0.94480005  0.89004201    -0.03600
Br861      Br  0.57229929  0.85242043  0.94598453     0.00900
Br862      Br  0.57286671  0.97579115  0.85778705    -0.02900
Br863      Br  0.55819384  0.89135808  0.81740111    -0.03800
Br864      Br  0.70414466  0.93027171  0.83469169     0.00200
C865        C  0.20276147  0.62369972  0.08222390     0.01600
C866        C  0.22332517  0.64680156  0.07309247     0.04400
C867        C  0.23148778  0.66987031  0.09368956    -0.11600
C868        C  0.21850310  0.67044307  0.12301022     0.23700
C869        C  0.19784349  0.64767077  0.13213189    -0.12200
C870        C  0.19014519  0.62414199  0.11192050     0.05100
C871        C  0.22690865  0.69468440  0.14467904     0.27600
C872        C  0.24916854  0.68921136  0.16696793    -0.12900
C873        C  0.25512006  0.71101981  0.18952206     0.05700
C874        C  0.24002681  0.73898263  0.18876912    -0.08900
C875        C  0.21890985  0.74508942  0.16548378     0.06500
C876        C  0.21184739  0.72265295  0.14379023    -0.13200
Br877      Br  0.18041897  0.64870596  0.17262366    -0.05300
Br878      Br  0.23915678  0.64826195  0.03193412     0.00300
Br879      Br  0.28385404  0.70264738  0.22157476     0.00800
Br880      Br  0.18143039  0.72991948  0.11302391    -0.03600
Br881      Br  0.16348353  0.59192999  0.12590023     0.00900
Br882      Br  0.26072193  0.70065496  0.08205267    -0.02900
Br883      Br  0.27166131  0.65193562  0.16620171    -0.03800
Br884      Br  0.19985655  0.78415347  0.16339322     0.00200
C885        C  0.19918407  0.49579257  0.08695182     0.01600
C886        C  0.17717878  0.47506644  0.09837071     0.04400
C887        C  0.18504474  0.45440480  0.12143412    -0.11600
C888        C  0.21532384  0.45261039  0.13153092     0.23700
C889        C  0.23760796  0.47217088  0.11932386    -0.12200
C890        C  0.22948086  0.49443025  0.09802190     0.05100
C891        C  0.22399724  0.42990935  0.15476718     0.27600
C892        C  0.22891355  0.43894304  0.18526245    -0.12900
C893        C  0.23852120  0.41770292  0.20698646     0.05700
C894        C  0.24300000  0.38731848  0.19832802    -0.08900
C895        C  0.23790290  0.37824663  0.16787063     0.06500
C896        C  0.22846685  0.39952751  0.14610794    -0.13200
Br897      Br  0.27953864  0.46804527  0.13169922    -0.05300
Br898      Br  0.13681714  0.47280032  0.08115609     0.00300
Br899      Br  0.24643720  0.43034489  0.24844100     0.00800
Br900      Br  0.22215148  0.38727248  0.10425657    -0.03600
Br901      Br  0.26021349  0.52369288  0.08581984     0.00900
Br902      Br  0.15438518  0.42839474  0.13942179    -0.02900
Br903      Br  0.22283998  0.48055946  0.19709740    -0.03800
Br904      Br  0.24396153  0.33664086  0.15599147     0.00200
C905        C  0.16936683  0.38151871  0.85102361     0.01600
C906        C  0.14937720  0.37396623  0.87502608     0.04400
C907        C  0.14144796  0.39601871  0.89665509    -0.11600
C908        C  0.15449034  0.42520459  0.89491315     0.23700
C909        C  0.17341809  0.43313366  0.87015135    -0.12200
C910        C  0.18034522  0.41143586  0.84785406     0.05100
C911        C  0.15226897  0.44606306  0.92113961     0.27600
C912        C  0.13240099  0.47086318  0.92042448    -0.12900
C913        C  0.13446793  0.49336210  0.94313094     0.05700
C914        C  0.15641477  0.49081613  0.96635717    -0.08900
C915        C  0.17404944  0.46449909  0.96866413     0.06500
C916        C  0.17234133  0.44235207  0.94582812    -0.13200
Br917      Br  0.19158847  0.47308449  0.86803799    -0.05300
Br918      Br  0.13418416  0.33305312  0.87901360     0.00300
Br919      Br  0.10860244  0.52829632  0.94140485     0.00800
Br920      Br  0.19898619  0.40787745  0.94732572    -0.03600
Br921      Br  0.20611593  0.42214119  0.81377692     0.00900
Br922      Br  0.11407106  0.38606500  0.92963078    -0.02900
Br923      Br  0.10364897  0.47457238  0.88750729    -0.03800
Br924      Br  0.20042507  0.45866264  0.00335223     0.00200
C925        C  0.16319389  0.62437475  0.96290323     0.00000
C926        C  0.16775237  0.62001424  0.93138637     0.04400
C927        C  0.16853149  0.64503440  0.91160441    -0.11600
C928        C  0.16691173  0.67463216  0.92354843     0.23700
C929        C  0.16204105  0.67900661  0.95506919    -0.12200
C930        C  0.15909651  0.65383328  0.97455160     0.05100
C931        C  0.17148078  0.70102430  0.90306617     0.27600
C932        C  0.20078901  0.70797088  0.89187480    -0.12900
C933        C  0.20486052  0.73162201  0.87083097     0.05700
C934        C  0.18024005  0.75040606  0.86323575    -0.08900
C935        C  0.15120683  0.74435227  0.87560962     0.06500
C936        C  0.14657305  0.71880250  0.89425707    -0.13200
Br937      Br  0.16144575  0.71946223  0.97181792    -0.05300
Br938      Br  0.17370812  0.57975859  0.91544716     0.00300
Br939      Br  0.24394043  0.73741267  0.85138117     0.00800
Br940      Br  0.10602759  0.70738142  0.90682830    -0.03600
Br941      Br  0.15121118  0.65985719  0.01746968     0.00900
Br942      Br  0.17244632  0.63890051  0.86815324    -0.02900
Br943      Br  0.23545881  0.68525477  0.90557022    -0.03800
Br944      Br  0.11804131  0.77141763  0.86769038     0.00200
C945        C  0.36449800  0.29402946  0.20423703     0.01600
C946        C  0.39567549  0.30113135  0.20702517     0.04400
C947        C  0.41504822  0.29779523  0.18163464    -0.11600
C948        C  0.40322093  0.28709778  0.15367782     0.23700
C949        C  0.37252250  0.27802641  0.15164171    -0.12200
C950        C  0.35318571  0.28157327  0.17682365     0.05100
C951        C  0.42160201  0.28885821  0.12535263     0.27600
C952        C  0.42022941  0.31518426  0.10755824    -0.12900
C953        C  0.43373641  0.31606171  0.07848912     0.05700
C954        C  0.45146550  0.29129365  0.06789824    -0.08900
C955        C  0.45291162  0.26476362  0.08640477     0.06500
C956        C  0.43760338  0.26361114  0.11472511    -0.13200
Br957      Br  0.35662909  0.26228074  0.11369146    -0.05300
Br958      Br  0.41133476  0.31671372  0.24505680     0.00300
Br959      Br  0.42476036  0.35084692  0.05326639     0.00800
Br960      Br  0.43817748  0.22739509  0.13940811    -0.03600
Br961      Br  0.31071851  0.27056357  0.17343001     0.00900
Br962      Br  0.45733100  0.30933636  0.18440781    -0.02900
Br963      Br  0.39935173  0.35025598  0.12339954    -0.03800
Br964      Br  0.47510906  0.22917375  0.07412380     0.00200
C965        C  0.70435172  0.32992416  0.14301529     0.01600
C966        C  0.67460004  0.33387551  0.15433739     0.04400
C967        C  0.64942506  0.32791877  0.13547399    -0.11600
C968        C  0.65385227  0.31943016  0.10481533     0.23700
C969        C  0.68350117  0.31597058  0.09327182    -0.12200
C970        C  0.70873073  0.32073786  0.11245960     0.05100
C971        C  0.62731308  0.31581499  0.08427027     0.27600
C972        C  0.61389404  0.28716478  0.07980120    -0.12900
C973        C  0.58823519  0.28386661  0.06082680     0.05700
C974        C  0.57627477  0.30939739  0.04528043    -0.08900
C975        C  0.59054916  0.33819194  0.04958564     0.06500
C976        C  0.61555786  0.34126729  0.06938772    -0.13200
Br977      Br  0.68932687  0.30551207  0.05089566    -0.05300
Br978      Br  0.66827702  0.34928236  0.19510389     0.00300
Br979      Br  0.56937385  0.24416723  0.05818235     0.00800
Br980      Br  0.63413310  0.38055667  0.07643313    -0.03600
Br981      Br  0.74926129  0.31495106  0.09680067     0.00900
Br982      Br  0.60873893  0.33193477  0.15133579    -0.02900
Br983      Br  0.63084027  0.25246677  0.10022654    -0.03800
Br984      Br  0.57766825  0.37398600  0.02787017     0.00200
C985        C  0.55481253  0.31312552  0.91751219     0.01600
C986        C  0.58596330  0.31897713  0.92207598     0.04400
C987        C  0.60450155  0.32714992  0.89726807    -0.11600
C988        C  0.59203562  0.32862984  0.86769429     0.23700
C989        C  0.56096233  0.32207783  0.86301325    -0.12200
C990        C  0.54224148  0.31475025  0.88802376     0.05100
C991        C  0.61155783  0.33768837  0.84168063     0.27600
C992        C  0.61077062  0.36763057  0.83069946    -0.12900
C993        C  0.62968352  0.37640582  0.80636787     0.05700
C994        C  0.65059995  0.35571542  0.79400669    -0.08900
C995        C  0.65155042  0.32578341  0.80521861     0.06500
C996        C  0.63157995  0.31664009  0.82859381    -0.13200
Br997      Br  0.54409785  0.32373695  0.82240601    -0.05300
Br998      Br  0.60306749  0.31620333  0.96249942     0.00300
Br999      Br  0.62709776  0.41689641  0.79004523     0.00800
Br1000     Br  0.63208324  0.27549608  0.84340823    -0.03600
Br1001     Br  0.49924443  0.30820144  0.88214142     0.00900
Br1002     Br  0.64673651  0.33738044  0.90391526    -0.02900
Br1003     Br  0.58474288  0.39694976  0.84996578    -0.03800
Br1004     Br  0.68130380  0.29775741  0.78990682     0.00200
C1005       C  0.42902554  0.29321284  0.93589837     0.01600
C1006       C  0.42625827  0.26859314  0.91506841     0.04400
C1007       C  0.40120903  0.26675879  0.89509962    -0.11600
C1008       C  0.37904907  0.28942723  0.89543446     0.23700
C1009       C  0.38208548  0.31432535  0.91522817    -0.12200
C1010       C  0.40648996  0.31600062  0.93583847     0.05100
C1011       C  0.35174052  0.28692318  0.87582167     0.27600
C1012       C  0.35061287  0.30274271  0.84796840    -0.12900
C1013       C  0.32332198  0.30366716  0.83139666     0.05700
C1014       C  0.29710944  0.28882444  0.84268650    -0.08900
C1015       C  0.29843372  0.27236693  0.87013695     0.06500
C1016       C  0.32583702  0.27115601  0.88654767    -0.13200
Br1017     Br  0.35254848  0.34642074  0.91374154    -0.05300
Br1018     Br  0.45688317  0.23760489  0.91221527     0.00300
Br1019     Br  0.32133913  0.32639151  0.79386503     0.00800
Br1020     Br  0.32785082  0.24859313  0.92415752    -0.03600
Br1021     Br  0.40707271  0.34899634  0.96492885     0.00900
Br1022     Br  0.39724060  0.23354181  0.86659538    -0.02900
Br1023     Br  0.38622983  0.32400242  0.83323624    -0.03800
Br1024     Br  0.26241764  0.25243265  0.88561047     0.00200
loop_ 
_geom_bond_atom_site_label_1 
_geom_bond_atom_site_label_2 
_geom_bond_distance 
_geom_bond_site_symmetry_2 
_ccdc_geom_bond_type 
O1            V9   1.907   1_554  S
O1           C11   1.265       .  A
O2            V9   1.904       .  S
O2           C12   1.265       .  A
O3            V9   1.902   1_554  S
O3           C13   1.265       .  A
O4            V9   1.900       .  S
O4           C14   1.264       .  A
O5           V10   1.896       .  S
O5           C14   1.264       .  A
O6           V10   1.895   1_554  S
O6           C13   1.263       .  A
O7           V10   1.890       .  S
O7           C12   1.261       .  A
O8           V10   1.889   1_554  S
O8           C11   1.262       .  A
V9           V10   2.077       .  T
C11         C954   1.503       .  S
C12         C985   1.465       .  S
C13         C974   1.497       .  S
C14        C1005   1.491       .  S
O15          V23   1.887   1_556  S
O15          C25   1.263       .  A
O16          V23   1.894       .  S
O16          C26   1.263       .  A
O17          V23   1.886       .  S
O17          C27   1.260       .  A
O18          V23   1.888   1_556  S
O18          C28   1.261       .  A
O19          V24   1.908       .  S
O19          C28   1.266   1_554  A
O20          V24   1.909       .  S
O20          C27   1.267       .  A
O21          V24   1.889       .  S
O21          C26   1.262       .  A
O22          V24   1.900       .  S
O22          C25   1.263   1_554  A
V23          V24   2.086       .  T
C25         C914   1.466       .  S
C26         C865   1.473       .  S
C27         C885   1.488       .  S
C28         C925   1.471       .  S
O29          V37   1.901       .  S
O29          C39   1.264       .  A
O30          V37   1.903   1_556  S
O30          C40   1.265       .  A
O31          V37   1.914       .  S
O31          C41   1.269       .  A
O32          V37   1.914   1_556  S
O32          C42   1.269       .  A
O33          V38   1.888   1_556  S
O33          C42   1.261       .  A
O34          V38   1.886       .  S
O34          C41   1.260       .  A
O35          V38   1.905   1_556  S
O35          C40   1.266       .  A
O36          V38   1.901       .  S
O36          C39   1.265       .  A
V37          V38   2.073       .  T
C39         C794   1.474       .  S
C40         C825   1.479       .  S
C41         C805   1.496       .  S
C42         C845   1.499       .  S
O43          V51   1.897   1_554  S
O43          C53   1.263       .  A
O44          V51   1.899       .  S
O44          C54   1.263       .  A
O45          V51   1.909       .  S
O45          C55   1.267       .  A
O46          V51   1.906       .  S
O46          C56   1.267   1_556  A
O47          V52   1.887   1_554  S
O47          C56   1.261       .  A
O48          V52   1.883       .  S
O48          C55   1.260       .  A
O49          V52   1.892       .  S
O49          C54   1.264       .  A
O50          V52   1.896   1_554  S
O50          C53   1.263       .  A
V51          V52   2.074       .  T
C53         C725   1.465       .  S
C54         C765   1.474       .  S
C55         C754   1.498       .  S
C56         C705   1.495       .  S
O57          V65   1.903       .  S
O57          C67   1.264       .  A
O58          V65   1.906       .  S
O58          C68   1.265       .  A
O59          V65   1.902       .  S
O59          C69   1.265       .  A
O60          V65   1.902       .  S
O60          C70   1.265       .  A
O61          V66   1.892       .  S
O61          C70   1.262       .  A
O62          V66   1.889       .  S
O62          C69   1.262       .  A
O63          V66   1.897       .  S
O63          C68   1.264       .  A
O64          V66   1.897       .  S
O64          C67   1.263       .  A
V65          V66   2.074       .  T
C67         C685   1.471   1_545  S
C68         C654   1.481       .  S
C69         C674   1.491   1_545  S
C70         C625   1.495       .  S
O71          V79   1.898       .  S
O71          C81   1.264       .  A
O72          V79   1.900   1_655  S
O72          C82   1.265       .  A
O73          V79   1.896   1_655  S
O73          C83   1.262       .  A
O74          V79   1.896       .  S
O74          C84   1.264       .  A
O75          V80   1.910   1_455  S
O75          C84   1.266       .  A
O76          V80   1.905       .  S
O76          C83   1.265       .  A
O77          V80   1.913       .  S
O77          C82   1.268       .  A
O78          V80   1.912   1_455  S
O78          C81   1.268       .  A
V79          V80   2.077   1_455  T
C81         C565   1.504       .  S
C82         C614   1.505       .  S
C83         C585   1.470       .  S
C84         C554   1.479       .  S
O85          V93   1.886       .  S
O85          C95   1.261       .  A
O86          V93   1.885       .  S
O86          C96   1.260       .  A
O87          V93   1.902       .  S
O87          C97   1.266       .  A
O88          V93   1.903       .  S
O88          C98   1.266       .  A
O89          V94   1.901       .  S
O89          C98   1.263       .  A
O90          V94   1.901       .  S
O90          C97   1.263       .  A
O91          V94   1.910       .  S
O91          C96   1.268       .  A
O92          V94   1.910       .  S
O92          C95   1.268       .  A
V93          V94   2.073       .  T
C95         C465   1.492       .  S
C96         C505   1.496       .  S
C97         C485   1.474       .  S
C98         C525   1.474       .  S
O99         V107   1.886       .  S
O99         C109   1.262       .  A
O100        V107   1.891   1_455  S
O100        C110   1.261       .  A
O101        V107   1.901   1_455  S
O101        C111   1.264       .  A
O102        V107   1.895       .  S
O102        C112   1.264       .  A
O103        V108   1.904   1_655  S
O103        C112   1.264       .  A
O104        V108   1.896       .  S
O104        C111   1.263       .  A
O105        V108   1.902       .  S
O105        C110   1.265       .  A
O106        V108   1.903   1_655  S
O106        C109   1.265       .  A
V107        V108   2.088   1_655  T
C109        C445   1.481       .  S
C110        C414   1.472       .  S
C111        C385   1.473       .  S
C112        C434   1.475       .  S
N113        C118   1.350       .  A
N113        C117   1.352       .  A
N113        H145   1.041       .  S
N114        C121   1.348       .  A
N114        C122   1.348       .  A
N115        C120   1.351       .  A
N115        C119   1.353       .  A
N115        H146   1.041       .  S
N116        C123   1.350       .  A
N116        C124   1.349       .  A
C117        C125   1.387       .  A
C117        C133   1.414       .  A
C118        C134   1.412       .  A
C118        C126   1.387       .  A
C119        C127   1.386       .  A
C119        C136   1.414       .  A
C120        C135   1.414       .  A
C120        C128   1.388       .  A
C121        C133   1.410       .  A
C121        C129   1.387       .  A
C122        C136   1.410       .  A
C122        C130   1.386       .  A
C123        C131   1.385       .  A
C123        C134   1.410       .  A
C124        C132   1.386       .  A
C124        C135   1.411       .  A
C125        C126   1.377       .  A
C125        H137   1.082       .  S
C126        H138   1.083       .  S
C127        C128   1.372       .  A
C127        H139   1.082       .  S
C128        H140   1.081       .  S
C129        C130   1.376       .  A
C129        H141   1.082       .  S
C130        H142   1.082       .  S
C131        C132   1.375       .  A
C131        H143   1.082       .  S
C132        H144   1.082       .  S
C133        C894   1.486       .  S
C134        C945   1.485       .  S
C135        C634   1.483       .  S
C136        C405   1.489       .  S
N147        C152   1.352       .  A
N147        C151   1.353       .  A
N147        H179   1.041       .  S
N148        C155   1.349       .  A
N148        C156   1.349       .  A
N149        C154   1.351       .  A
N149        C153   1.351       .  A
N149        H180   1.041       .  S
N150        C157   1.347       .  A
N150        C158   1.348       .  A
C151        C159   1.386       .  A
C151        C167   1.414       .  A
C152        C168   1.416       .  A
C152        C160   1.388       .  A
C153        C161   1.387       .  A
C153        C170   1.413       .  A
C154        C169   1.413       .  A
C154        C162   1.387       .  A
C155        C167   1.411       .  A
C155        C163   1.387       .  A
C156        C170   1.410       .  A
C156        C164   1.386       .  A
C157        C165   1.386       .  A
C157        C168   1.408       .  A
C158        C166   1.386       .  A
C158        C169   1.409       .  A
C159        C160   1.376       .  A
C159        H171   1.082       .  S
C160        H172   1.082       .  S
C161        C162   1.377       .  A
C161        H173   1.082       .  S
C162        H174   1.082       .  S
C163        C164   1.377       .  A
C163        H175   1.082       .  S
C164        H176   1.082       .  S
C165        C166   1.376       .  A
C165        H177   1.082       .  S
C166        H178   1.082       .  S
C167        C965   1.490       .  S
C168        C714   1.487       .  S
C169        C425   1.486       .  S
C170        C494   1.487       .  S
N181        C186   1.350       .  A
N181        C185   1.351       .  A
N181        H213   1.041       .  S
N182        C189   1.344       .  A
N182        C190   1.346       .  A
N183        C188   1.350       .  A
N183        C187   1.352       .  A
N183        H214   1.041       .  S
N184        C191   1.348       .  A
N184        C192   1.348       .  A
C185        C193   1.387       .  A
C185        C201   1.412       .  A
C186        C202   1.412       .  A
C186        C194   1.387       .  A
C187        C195   1.388       .  A
C187        C204   1.416       .  A
C188        C203   1.412       .  A
C188        C196   1.387       .  A
C189        C201   1.404       .  A
C189        C197   1.386       .  A
C190        C204   1.406       .  A
C190        C198   1.386       .  A
C191        C199   1.386       .  A
C191        C202   1.409       .  A
C192        C200   1.386       .  A
C192        C203   1.409       .  A
C193        C194   1.377       .  A
C193        H205   1.082       .  S
C194        H206   1.082       .  S
C195        C196   1.377       .  A
C195        H207   1.082       .  S
C196        H208   1.083       .  S
C197        C198   1.376       .  A
C197        H209   1.082       .  S
C198        H210   1.082       .  S
C199        C200   1.378       .  A
C199        H211   1.082       .  S
C200        H212   1.082       .  S
C201        C774   1.477       .  S
C202        C994   1.486       .  S
C203        C474   1.485       .  S
C204        C454   1.489       .  S
N215        C220   1.355       .  A
N215        C219   1.353       .  A
N215        H247   1.040       .  S
N216        C223   1.345       .  A
N216        C224   1.349       .  A
N217        C222   1.347       .  A
N217        C221   1.350       .  A
N217        H248   1.040       .  S
N218        C225   1.350       .  A
N218        C226   1.349       .  A
C219        C227   1.388       .  A
C219        C235   1.418       .  A
C220        C236   1.419       .  A
C220        C228   1.387       .  A
C221        C229   1.385       .  A
C221        C238   1.406       .  A
C222        C237   1.410       .  A
C222        C230   1.389       .  A
C223        C235   1.408       .  A
C223        C231   1.388       .  A
C224        C238   1.407       .  A
C224        C232   1.385       .  A
C225        C233   1.386       .  A
C225        C236   1.413       .  A
C226        C234   1.386       .  A
C226        C237   1.411       .  A
C227        C228   1.380       .  A
C227        H239   1.082       .  S
C228        H240   1.082       .  S
C229        C230   1.375       .  A
C229        H241   1.082       .  S
C230        H242   1.082       .  S
C231        C232   1.376       .  A
C231        H243   1.082       .  S
C232        H244   1.082       .  S
C233        C234   1.378       .  A
C233        H245   1.082       .  S
C234        H246   1.082       .  S
C235        C514   1.485       .  S
C236        C605   1.498       .  S
C237        C734   1.480       .  S
C238        C785   1.483       .  S
N249        C254   1.351       .  A
N249        C253   1.353       .  A
N249        H281   1.034       .  S
N250        C257   1.347       .  A
N250        C258   1.347       .  A
N251        C256   1.351       .  A
N251        C255   1.353       .  A
N251        H282   1.035       .  S
N252        C259   1.351       .  A
N252        C260   1.351       .  A
C253        C261   1.387       .  A
C253        C269   1.415       .  A
C254        C270   1.414       .  A
C254        C262   1.387       .  A
C255        C263   1.387       .  A
C255        C272   1.415       .  A
C256        C271   1.413       .  A
C256        C264   1.387       .  A
C257        C269   1.407       .  A
C257        C265   1.386       .  A
C258        C272   1.408       .  A
C258        C266   1.387       .  A
C259        C267   1.386       .  A
C259        C270   1.413       .  A
C260        C268   1.385       .  A
C260        C271   1.412       .  A
C261        C262   1.377       .  A
C261        H273   1.082       .  S
C262        H274   1.082       .  S
C263        C264   1.378       .  A
C263        H275   1.082       .  S
C264        H276   1.082       .  S
C265        C266   1.373       .  A
C265        H277   1.082       .  S
C266        H278   1.082       .  S
C267        C268   1.375       .  A
C267        H279   1.082       .  S
C268        H280   1.082       .  S
C269        C594   1.484       .  S
C270        C534   1.487       .  S
C271        C854   1.487       .  S
C272        C745   1.484       .  S
N283        C288   1.353       .  A
N283        C287   1.352       .  A
N283        H315   1.033       .  S
N284        C291   1.348       .  A
N284        C292   1.351       .  A
N285        C290   1.350       .  A
N285        C289   1.351       .  A
N285        H316   1.032       .  S
N286        C293   1.349       .  A
N286        C294   1.350       .  A
C287        C295   1.388       .  A
C287        C303   1.415       .  A
C288        C304   1.415       .  A
C288        C296   1.387       .  A
C289        C297   1.386       .  A
C289        C306   1.410       .  A
C290        C305   1.411       .  A
C290        C298   1.388       .  A
C291        C303   1.411       .  A
C291        C299   1.387       .  A
C292        C306   1.411       .  A
C292        C300   1.385       .  A
C293        C301   1.386       .  A
C293        C304   1.411       .  A
C294        C302   1.386       .  A
C294        C305   1.411       .  A
C295        C296   1.373       .  A
C295        H307   1.082       .  S
C296        H308   1.083       .  S
C297        C298   1.375       .  A
C297        H309   1.083       .  S
C298        H310   1.082       .  S
C299        C300   1.375       .  A
C299        H311   1.082       .  S
C300        H312   1.082       .  S
C301        C302   1.376       .  A
C301        H313   1.082       .  S
C302        H314   1.082       .  S
C303        C874   1.481       .  S
C304        C814   1.488       .  S
C305        C694   1.482       .  S
C306        C545   1.486       .  S
N317        C322   1.351       .  A
N317        C321   1.354       .  A
N317        H349   1.032       .  S
N318        C325   1.349       .  A
N318        C326   1.348       .  A
N319        C324   1.352       .  A
N319        C323   1.350       .  A
N319        H350   1.033       .  S
N320        C327   1.350       .  A
N320        C328   1.353       .  A
C321        C329   1.385       .  A
C321        C337   1.414       .  A
C322        C338   1.416       .  A
C322        C330   1.388       .  A
C323        C331   1.387       .  A
C323        C340   1.411       .  A
C324        C339   1.412       .  A
C324        C332   1.387       .  A
C325        C337   1.409       .  A
C325        C333   1.386       .  A
C326        C340   1.408       .  A
C326        C334   1.386       .  A
C327        C335   1.388       .  A
C327        C338   1.416       .  A
C328        C336   1.384       .  A
C328        C339   1.412       .  A
C329        C330   1.378       .  A
C329        H341   1.082       .  S
C330        H342   1.082       .  S
C331        C332   1.375       .  A
C331        H343   1.083       .  S
C332        H344   1.082       .  S
C333        C334   1.373       .  A
C333        H345   1.082       .  S
C334        H346   1.082       .  S
C335        C336   1.376       .  A
C335        H347   1.082       .  S
C336        H348   1.082       .  S
C337        C834   1.488       .  S
C338        C934   1.489       .  S
C339        C574   1.491       .  S
C340        C665   1.478       .  S
N351        C356   1.352       .  A
N351        C355   1.354       .  A
N351        H383   1.040       .  S
N352        C359   1.349       .  A
N352        C360   1.349       .  A
N353        C358   1.353       .  A
N353        C357   1.353       .  A
N353        H384   1.041       .  S
N354        C361   1.349       .  A
N354        C362   1.350       .  A
C355        C363   1.387       .  A
C355        C371   1.416       .  A
C356        C372   1.417       .  A
C356        C364   1.389       .  A
C357        C365   1.386       .  A
C357        C374   1.415       .  A
C358        C373   1.416       .  A
C358        C366   1.388       .  A
C359        C371   1.409       .  A
C359        C367   1.386       .  A
C360        C374   1.410       .  A
C360        C368   1.386       .  A
C361        C369   1.387       .  A
C361        C372   1.411       .  A
C362        C370   1.386       .  A
C362        C373   1.410       .  A
C363        C364   1.374       .  A
C363        H375   1.083       .  S
C364        H376   1.082       .  S
C365        C366   1.374       .  A
C365        H377   1.082       .  S
C366        H378   1.082       .  S
C367        C368   1.373       .  A
C367        H379   1.082       .  S
C368        H380   1.082       .  S
C369        C370   1.372       .  A
C369        H381   1.082       .  S
C370        H382   1.082       .  S
C371       C1014   1.486       .  S
C372        C905   1.483       .  S
C373        C394   1.486       .  S
C374        C645   1.488       .  S
C385        C386   1.408       .  A
C385        C390   1.412       .  A
C386        C387   1.405       .  A
C386       Br398   1.929       .  S
C387        C388   1.411       .  A
C387       Br402   1.931       .  S
C388        C391   1.482       .  S
C388        C389   1.409       .  A
C389        C390   1.407       .  A
C389       Br397   1.930       .  S
C390       Br401   1.930       .  S
C391        C392   1.410       .  A
C391        C396   1.410       .  A
C392        C393   1.405       .  A
C392       Br403   1.930       .  S
C393        C394   1.408       .  A
C393       Br399   1.928       .  S
C394        C395   1.410       .  A
C395        C396   1.405       .  A
C395       Br404   1.930       .  S
C396       Br400   1.929       .  S
C405        C406   1.412       .  A
C405        C410   1.411       .  A
C406        C407   1.405       .  A
C406       Br418   1.931       .  S
C407        C408   1.410       .  A
C407       Br422   1.931       .  S
C408        C411   1.482       .  S
C408        C409   1.410       .  A
C409        C410   1.404       .  A
C409       Br417   1.931       .  S
C410       Br421   1.931       .  S
C411        C412   1.409       .  A
C411        C416   1.411       .  A
C412        C413   1.405       .  A
C412       Br423   1.932       .  S
C413        C414   1.412       .  A
C413       Br419   1.933       .  S
C414        C415   1.409       .  A
C415        C416   1.406       .  A
C415       Br424   1.929       .  S
C416       Br420   1.931       .  S
C425        C426   1.409       .  A
C425        C430   1.411       .  A
C426        C427   1.405       .  A
C426       Br438   1.930       .  S
C427        C428   1.409       .  A
C427       Br442   1.931       .  S
C428        C431   1.482       .  S
C428        C429   1.408       .  A
C429        C430   1.407       .  A
C429       Br437   1.927       .  S
C430       Br441   1.929       .  S
C431        C432   1.409       .  A
C431        C436   1.408       .  A
C432        C433   1.403       .  A
C432       Br443   1.931       .  S
C433        C434   1.408       .  A
C433       Br439   1.931       .  S
C434        C435   1.413       .  A
C435        C436   1.410       .  A
C435       Br444   1.929   1_655  S
C436       Br440   1.929       .  S
C445        C446   1.416       .  A
C445        C450   1.417       .  A
C446        C447   1.409       .  A
C446       Br458   1.930       .  S
C447        C448   1.408       .  A
C447       Br462   1.930       .  S
C448        C451   1.480       .  S
C448        C449   1.408       .  A
C449        C450   1.402       .  A
C449       Br457   1.936       .  S
C450       Br461   1.937       .  S
C451        C452   1.408       .  A
C451        C456   1.409       .  A
C452        C453   1.405       .  A
C452       Br463   1.931       .  S
C453        C454   1.414       .  A
C453       Br459   1.931       .  S
C454        C455   1.411       .  A
C455        C456   1.404       .  A
C455       Br464   1.931       .  S
C456       Br460   1.929       .  S
C465        C466   1.421       .  A
C465        C470   1.424       .  A
C466        C467   1.409       .  A
C466       Br478   1.933       .  S
C467        C468   1.404       .  A
C467       Br482   1.931       .  S
C468        C471   1.480       .  S
C468        C469   1.404       .  A
C469        C470   1.405       .  A
C469       Br477   1.935       .  S
C470       Br481   1.938       .  S
C471        C472   1.408       .  A
C471        C476   1.408       .  A
C472        C473   1.404       .  A
C472       Br483   1.930       .  S
C473        C474   1.410       .  A
C473       Br479   1.930       .  S
C474        C475   1.411       .  A
C475        C476   1.406       .  A
C475       Br484   1.930       .  S
C476       Br480   1.929       .  S
C485        C486   1.408       .  A
C485        C490   1.410       .  A
C486        C487   1.406       .  A
C486       Br498   1.928       .  S
C487        C488   1.409       .  A
C487       Br502   1.930       .  S
C488        C491   1.484       .  S
C488        C489   1.410       .  A
C489        C490   1.408       .  A
C489       Br497   1.931       .  S
C490       Br501   1.929       .  S
C491        C492   1.410       .  A
C491        C496   1.410       .  A
C492        C493   1.408       .  A
C492       Br503   1.929       .  S
C493        C494   1.411       .  A
C493       Br499   1.929       .  S
C494        C495   1.409       .  A
C495        C496   1.404       .  A
C495       Br504   1.931       .  S
C496       Br500   1.930       .  S
C505        C506   1.424       .  A
C505        C510   1.427       .  A
C506        C507   1.410       .  A
C506       Br518   1.934       .  S
C507        C508   1.404       .  A
C507       Br522   1.931       .  S
C508        C511   1.479   1_545  S
C508        C509   1.402       .  A
C509        C510   1.404       .  A
C509       Br517   1.937       .  S
C510       Br521   1.938       .  S
C511        C512   1.408       .  A
C511        C516   1.408       .  A
C512        C513   1.404       .  A
C512       Br523   1.929       .  S
C513        C514   1.410       .  A
C513       Br519   1.930       .  S
C514        C515   1.413       .  A
C515        C516   1.405       .  A
C515       Br524   1.931       .  S
C516       Br520   1.931   1_565  S
C525        C526   1.408       .  A
C525        C530   1.410       .  A
C526        C527   1.405       .  A
C526       Br538   1.929       .  S
C527        C528   1.410       .  A
C527       Br542   1.931   1_545  S
C528        C531   1.484   1_545  S
C528        C529   1.410       .  A
C529        C530   1.409       .  A
C529       Br537   1.929       .  S
C530       Br541   1.927       .  S
C531        C532   1.410       .  A
C531        C536   1.410   1_565  A
C532        C533   1.409       .  A
C532       Br543   1.928       .  S
C533        C534   1.410       .  A
C533       Br539   1.928       .  S
C534        C535   1.409       .  A
C535        C536   1.404   1_565  A
C535       Br544   1.931       .  S
C536       Br540   1.931       .  S
C545        C546   1.409       .  A
C545        C550   1.410       .  A
C546        C547   1.409       .  A
C546       Br558   1.927       .  S
C547        C548   1.410       .  A
C547       Br562   1.927       .  S
C548        C551   1.483       .  S
C548        C549   1.408       .  A
C549        C550   1.404       .  A
C549       Br557   1.930       .  S
C550       Br561   1.932       .  S
C551        C552   1.408       .  A
C551        C556   1.408       .  A
C552        C553   1.409       .  A
C552       Br563   1.929       .  S
C553        C554   1.411       .  A
C553       Br559   1.925       .  S
C554        C555   1.410       .  A
C555        C556   1.406       .  A
C555       Br564   1.927       .  S
C556       Br560   1.931       .  S
C565        C566   1.425       .  A
C565        C570   1.425       .  A
C566        C567   1.410       .  A
C566       Br578   1.936       .  S
C567        C568   1.406       .  A
C567       Br582   1.936       .  S
C568        C571   1.490       .  S
C568        C569   1.405       .  A
C569        C570   1.412       .  A
C569       Br577   1.932       .  S
C570       Br581   1.934       .  S
C571        C572   1.410       .  A
C571        C576   1.412       .  A
C572        C573   1.408       .  A
C572       Br583   1.929       .  S
C573        C574   1.411       .  A
C573       Br579   1.930       .  S
C574        C575   1.408       .  A
C575        C576   1.409       .  A
C575       Br584   1.928       .  S
C576       Br580   1.930       .  S
C585        C586   1.409       .  A
C585        C590   1.407       .  A
C586        C587   1.406       .  A
C586       Br598   1.927       .  S
C587        C588   1.408       .  A
C587       Br602   1.930       .  S
C588        C591   1.480       .  S
C588        C589   1.409       .  A
C589        C590   1.406       .  A
C589       Br597   1.930       .  S
C590       Br601   1.928       .  S
C591        C592   1.408       .  A
C591        C596   1.410       .  A
C592        C593   1.404       .  A
C592       Br603   1.929       .  S
C593        C594   1.410       .  A
C593       Br599   1.930       .  S
C594        C595   1.407       .  A
C595        C596   1.406       .  A
C595       Br604   1.929       .  S
C596       Br600   1.929       .  S
C605        C606   1.413       .  A
C605        C610   1.414       .  A
C606        C607   1.411       .  A
C606       Br618   1.929       .  S
C607        C608   1.409       .  A
C607       Br622   1.928       .  S
C608        C611   1.492       .  S
C608        C609   1.410       .  A
C609        C610   1.410       .  A
C609       Br617   1.929       .  S
C610       Br621   1.931       .  S
C611        C612   1.406       .  A
C611        C616   1.406       .  A
C612        C613   1.410       .  A
C612       Br623   1.935       .  S
C613        C614   1.425       .  A
C613       Br619   1.936       .  S
C614        C615   1.424       .  A
C615        C616   1.414       .  A
C615       Br624   1.932       .  S
C616       Br620   1.930       .  S
C625        C626   1.425       .  A
C625        C630   1.425       .  A
C626        C627   1.405       .  A
C626       Br638   1.938       .  S
C627        C628   1.405       .  A
C627       Br642   1.937       .  S
C628        C631   1.481       .  S
C628        C629   1.403       .  A
C629        C630   1.409       .  A
C629       Br637   1.933       .  S
C630       Br641   1.935       .  S
C631        C632   1.409       .  A
C631        C636   1.410       .  A
C632        C633   1.404       .  A
C632       Br643   1.930       .  S
C633        C634   1.410       .  A
C633       Br639   1.930       .  S
C634        C635   1.409       .  A
C635        C636   1.405       .  A
C635       Br644   1.930       .  S
C636       Br640   1.929       .  S
C645        C646   1.412       .  A
C645        C650   1.409       .  A
C646        C647   1.408       .  A
C646       Br658   1.930       .  S
C647        C648   1.409       .  A
C647       Br662   1.928       .  S
C648        C651   1.482       .  S
C648        C649   1.409       .  A
C649        C650   1.404       .  A
C649       Br657   1.930       .  S
C650       Br661   1.930       .  S
C651        C652   1.407       .  A
C651        C656   1.408       .  A
C652        C653   1.406       .  A
C652       Br663   1.931       .  S
C653        C654   1.413       .  A
C653       Br659   1.928       .  S
C654        C655   1.413       .  A
C655        C656   1.409       .  A
C655       Br664   1.928       .  S
C656       Br660   1.930       .  S
C665        C666   1.407       .  A
C665        C670   1.409       .  A
C666        C667   1.402       .  A
C666       Br678   1.929       .  S
C667        C668   1.409       .  A
C667       Br682   1.931       .  S
C668        C671   1.474       .  S
C668        C669   1.407       .  A
C669        C670   1.403       .  A
C669       Br677   1.928       .  S
C670       Br681   1.930       .  S
C671        C672   1.402       .  A
C671        C676   1.402       .  A
C672        C673   1.404       .  A
C672       Br683   1.936       .  S
C673        C674   1.425       .  A
C673       Br679   1.938       .  S
C674        C675   1.423       .  A
C675        C676   1.407       .  A
C675       Br684   1.933   1_565  S
C676       Br680   1.933       .  S
C685        C686   1.410       .  A
C685        C690   1.408   1_565  A
C686        C687   1.405       .  A
C686       Br698   1.925       .  S
C687        C688   1.407       .  A
C687       Br702   1.930       .  S
C688        C691   1.478       .  S
C688        C689   1.409       .  A
C689        C690   1.405   1_565  A
C689       Br697   1.930       .  S
C690       Br701   1.928       .  S
C691        C692   1.409       .  A
C691        C696   1.408       .  A
C692        C693   1.406       .  A
C692       Br703   1.928       .  S
C693        C694   1.408       .  A
C693       Br699   1.928       .  S
C694        C695   1.409       .  A
C695        C696   1.403       .  A
C695       Br704   1.930       .  S
C696       Br700   1.930       .  S
C705        C706   1.427       .  A
C705        C710   1.423       .  A
C706        C707   1.405       .  A
C706       Br718   1.939       .  S
C707        C708   1.403       .  A
C707       Br722   1.938       .  S
C708        C711   1.479       .  S
C708        C709   1.403       .  A
C709        C710   1.409       .  A
C709       Br717   1.931       .  S
C710       Br721   1.934       .  S
C711        C712   1.407       .  A
C711        C716   1.408       .  A
C712        C713   1.405       .  A
C712       Br723   1.931       .  S
C713        C714   1.412       .  A
C713       Br719   1.930       .  S
C714        C715   1.411       .  A
C715        C716   1.405       .  A
C715       Br724   1.930       .  S
C716       Br720   1.929       .  S
C725        C726   1.409       .  A
C725        C730   1.407       .  A
C726        C727   1.405       .  A
C726       Br738   1.929   1_554  S
C727        C728   1.408       .  A
C727       Br742   1.930       .  S
C728        C731   1.475       .  S
C728        C729   1.408       .  A
C729        C730   1.403       .  A
C729       Br737   1.930       .  S
C730       Br741   1.929       .  S
C731        C732   1.408       .  A
C731        C736   1.407       .  A
C732        C733   1.406       .  A
C732       Br743   1.927       .  S
C733        C734   1.408       .  A
C733       Br739   1.929       .  S
C734        C735   1.409       .  A
C735        C736   1.401       .  A
C735       Br744   1.930       .  S
C736       Br740   1.932       .  S
C745        C746   1.410       .  A
C745        C750   1.411       .  A
C746        C747   1.406       .  A
C746       Br758   1.929       .  S
C747        C748   1.409       .  A
C747       Br762   1.929       .  S
C748        C751   1.478       .  S
C748        C749   1.407       .  A
C749        C750   1.403       .  A
C749       Br757   1.930       .  S
C750       Br761   1.931       .  S
C751        C752   1.404       .  A
C751        C756   1.401       .  A
C752        C753   1.410       .  A
C752       Br763   1.932       .  S
C753        C754   1.425       .  A
C753       Br759   1.934       .  S
C754        C755   1.429       .  A
C755        C756   1.403       .  A
C755       Br764   1.940       .  S
C756       Br760   1.939       .  S
C765        C766   1.411       .  A
C765        C770   1.413       .  A
C766        C767   1.401       .  A
C766       Br778   1.928       .  S
C767        C768   1.405       .  A
C767       Br782   1.933       .  S
C768        C771   1.473       .  S
C768        C769   1.407       .  A
C769        C770   1.407       .  A
C769       Br777   1.929       .  S
C770       Br781   1.930       .  S
C771        C772   1.406       .  A
C771        C776   1.410       .  A
C772        C773   1.402       .  A
C772       Br783   1.928       .  S
C773        C774   1.410       .  A
C773       Br779   1.930       .  S
C774        C775   1.405       .  A
C775        C776   1.403       .  A
C775       Br784   1.929       .  S
C776       Br780   1.930       .  S
C785        C786   1.409       .  A
C785        C790   1.409       .  A
C786        C787   1.408       .  A
C786       Br798   1.928       .  S
C787        C788   1.409       .  A
C787       Br802   1.927       .  S
C788        C791   1.478       .  S
C788        C789   1.407       .  A
C789        C790   1.401       .  A
C789       Br797   1.932       .  S
C790       Br801   1.930       .  S
C791        C792   1.408       .  A
C791        C796   1.407       .  A
C792        C793   1.405       .  A
C792       Br803   1.931       .  S
C793        C794   1.410       .  A
C793       Br799   1.926       .  S
C794        C795   1.410       .  A
C795        C796   1.406       .  A
C795       Br804   1.925   1_554  S
C796       Br800   1.929       .  S
C805        C806   1.427       .  A
C805        C810   1.422       .  A
C806        C807   1.405       .  A
C806       Br818   1.939       .  S
C807        C808   1.403       .  A
C807       Br822   1.937       .  S
C808        C811   1.481       .  S
C808        C809   1.404       .  A
C809        C810   1.410       .  A
C809       Br817   1.931       .  S
C810       Br821   1.932       .  S
C811        C812   1.408       .  A
C811        C816   1.408       .  A
C812        C813   1.405       .  A
C812       Br823   1.930       .  S
C813        C814   1.411       .  A
C813       Br819   1.930       .  S
C814        C815   1.411       .  A
C815        C816   1.406       .  A
C815       Br824   1.930       .  S
C816       Br820   1.929       .  S
C825        C826   1.410       .  A
C825        C830   1.411       .  A
C826        C827   1.409       .  A
C826       Br838   1.929       .  S
C827        C828   1.410       .  A
C827       Br842   1.929       .  S
C828        C831   1.485       .  S
C828        C829   1.408       .  A
C829        C830   1.408       .  A
C829       Br837   1.930       .  S
C830       Br841   1.925   1_556  S
C831        C832   1.410       .  A
C831        C836   1.410       .  A
C832        C833   1.408       .  A
C832       Br843   1.928       .  S
C833        C834   1.409       .  A
C833       Br839   1.928       .  S
C834        C835   1.409       .  A
C835        C836   1.406       .  A
C835       Br844   1.930       .  S
C836       Br840   1.930       .  S
C845        C846   1.423       .  A
C845        C850   1.427       .  A
C846        C847   1.412       .  A
C846       Br858   1.932       .  S
C847        C848   1.405       .  A
C847       Br862   1.930       .  S
C848        C851   1.484       .  S
C848        C849   1.404       .  A
C849        C850   1.406       .  A
C849       Br857   1.938       .  S
C850       Br861   1.939       .  S
C851        C852   1.410       .  A
C851        C856   1.408       .  A
C852        C853   1.408       .  A
C852       Br863   1.929       .  S
C853        C854   1.409       .  A
C853       Br859   1.928       .  S
C854        C855   1.410       .  A
C855        C856   1.406       .  A
C855       Br864   1.931       .  S
C856       Br860   1.929       .  S
C865        C866   1.414       .  A
C865        C870   1.414       .  A
C866        C867   1.404       .  A
C866       Br878   1.933       .  S
C867        C868   1.406       .  A
C867       Br882   1.930       .  S
C868        C871   1.474       .  S
C868        C869   1.407       .  A
C869        C870   1.403       .  A
C869       Br877   1.932       .  S
C870       Br881   1.934       .  S
C871        C872   1.407       .  A
C871        C876   1.408       .  A
C872        C873   1.402       .  A
C872       Br883   1.930       .  S
C873        C874   1.409       .  A
C873       Br879   1.929       .  S
C874        C875   1.409       .  A
C875        C876   1.405       .  A
C875       Br884   1.928       .  S
C876       Br880   1.930       .  S
C885        C886   1.417       .  A
C885        C890   1.421       .  A
C886        C887   1.408       .  A
C886       Br898   1.932       .  S
C887        C888   1.407       .  A
C887       Br902   1.931       .  S
C888        C891   1.483       .  S
C888        C889   1.406       .  A
C889        C890   1.406       .  A
C889       Br897   1.934       .  S
C890       Br901   1.936       .  S
C891        C892   1.410       .  A
C891        C896   1.409       .  A
C892        C893   1.406       .  A
C892       Br903   1.930       .  S
C893        C894   1.410       .  A
C893       Br899   1.930       .  S
C894        C895   1.410       .  A
C895        C896   1.406       .  A
C895       Br904   1.930       .  S
C896       Br900   1.931       .  S
C905        C906   1.408       .  A
C905        C910   1.409       .  A
C906        C907   1.404       .  A
C906       Br918   1.928       .  S
C907        C908   1.407       .  A
C907       Br922   1.928       .  S
C908        C911   1.475       .  S
C908        C909   1.409       .  A
C909        C910   1.403       .  A
C909       Br917   1.931       .  S
C910       Br921   1.930       .  S
C911        C912   1.409       .  A
C911        C916   1.408       .  A
C912        C913   1.407       .  A
C912       Br923   1.928       .  S
C913        C914   1.409       .  A
C913       Br919   1.928       .  S
C914        C915   1.408       .  A
C915        C916   1.400       .  A
C915       Br924   1.932   1_556  S
C916       Br920   1.933       .  S
C925        C926   1.408       .  A
C925        C930   1.410       .  A
C926        C927   1.405       .  A
C926       Br938   1.929       .  S
C927        C928   1.410       .  A
C927       Br942   1.930       .  S
C928        C931   1.484       .  S
C928        C929   1.411       .  A
C929        C930   1.407       .  A
C929       Br937   1.931       .  S
C930       Br941   1.930   1_556  S
C931        C932   1.410       .  A
C931        C936   1.409       .  A
C932        C933   1.404       .  A
C932       Br943   1.931       .  S
C933        C934   1.412       .  A
C933       Br939   1.933       .  S
C934        C935   1.410       .  A
C935        C936   1.407       .  A
C935       Br944   1.928       .  S
C936       Br940   1.929       .  S
C945        C946   1.409       .  A
C945        C950   1.409       .  A
C946        C947   1.409       .  A
C946       Br958   1.927       .  S
C947        C948   1.410       .  A
C947       Br962   1.928       .  S
C948        C951   1.482       .  S
C948        C949   1.408       .  A
C949        C950   1.402       .  A
C949       Br957   1.930       .  S
C950       Br961   1.932       .  S
C951        C952   1.402       .  A
C951        C956   1.404       .  A
C952        C953   1.405       .  A
C952       Br963   1.937       .  S
C953        C954   1.427       .  A
C953       Br959   1.938       .  S
C954        C955   1.428       .  A
C955        C956   1.412       .  A
C955       Br964   1.935       .  S
C956       Br960   1.932       .  S
C965        C966   1.412       .  A
C965        C970   1.412       .  A
C966        C967   1.405       .  A
C966       Br978   1.931       .  S
C967        C968   1.408       .  A
C967       Br982   1.930       .  S
C968        C971   1.482       .  S
C968        C969   1.408       .  A
C969        C970   1.407       .  A
C969       Br977   1.930       .  S
C970       Br981   1.930       .  S
C971        C972   1.404       .  A
C971        C976   1.404       .  A
C972        C973   1.409       .  A
C972       Br983   1.932       .  S
C973        C974   1.424       .  A
C973       Br979   1.935       .  S
C974        C975   1.425       .  A
C975        C976   1.407       .  A
C975       Br984   1.936       .  S
C976       Br980   1.935       .  S
C985        C986   1.407       .  A
C985        C990   1.408       .  A
C986        C987   1.404       .  A
C986       Br998   1.929       .  S
C987        C988   1.409       .  A
C987      Br1002   1.930       .  S
C988        C991   1.479       .  S
C988        C989   1.410       .  A
C989        C990   1.406       .  A
C989       Br997   1.930       .  S
C990      Br1001   1.928       .  S
C991        C992   1.408       .  A
C991        C996   1.408       .  A
C992        C993   1.404       .  A
C992      Br1003   1.930       .  S
C993        C994   1.411       .  A
C993       Br999   1.931       .  S
C994        C995   1.412       .  A
C995        C996   1.406       .  A
C995      Br1004   1.930       .  S
C996      Br1000   1.931       .  S
C1005      C1006   1.423       .  A
C1005      C1010   1.420       .  A
C1006      C1007   1.409       .  A
C1006     Br1018   1.935       .  S
C1007      C1008   1.405       .  A
C1007     Br1022   1.932       .  S
C1008      C1011   1.481       .  S
C1008      C1009   1.405       .  A
C1009      C1010   1.405       .  A
C1009     Br1017   1.934       .  S
C1010     Br1021   1.934       .  S
C1011      C1012   1.408       .  A
C1011      C1016   1.410       .  A
C1012      C1013   1.405       .  A
C1012     Br1023   1.929       .  S
C1013      C1014   1.410       .  A
C1013     Br1019   1.930       .  S
C1014      C1015   1.408       .  A
C1015      C1016   1.406       .  A
C1015     Br1024   1.928       .  S
C1016     Br1020   1.929       .  S
