geometry optimzed in LAMMPS
_audit_creation_date              2020-12-01 
_audit_creation_method            'lammps2cif' 
_symmetry_space_group_name_H-M    'P1' 
_symmetry_Int_Tables_number       1 
_symmetry_cell_setting            triclinic 
loop_ 
_symmetry_equiv_pos_as_xyz 
  x,y,z 
_cell_length_a                    36.09163921 
_cell_length_b                    36.12364858803525 
_cell_length_c                    51.617319545746454 
_cell_angle_alpha                 90.11148741788436 
_cell_angle_beta                  90.05099143630109 
_cell_angle_gamma                 90.03634547472475 
loop_ 
_atom_site_label 
_atom_site_type_symbol 
_atom_site_fract_x 
_atom_site_fract_y 
_atom_site_fract_z 
_atom_site_charge 
Zn1        Zn  0.95515987  0.98618028  0.10385470     1.49700
Zn2        Zn  0.00062363  0.04367910  0.14035702     1.49400
Zn3        Zn  0.00031962  0.95401503  0.14802856     1.49100
Zn4        Zn  0.04425293  0.98718621  0.10249727     1.49500
O5          O  0.00029676  0.99403546  0.12369052    -1.84000
O6          O  0.92841066  0.03348267  0.10099753    -0.74600
O7          O  0.00029374  0.03630897  0.18072178    -0.74400
O8          O  0.95580529  0.92220633  0.14842415    -0.73900
O9          O  0.95564042  0.07383842  0.12721524    -0.74600
O10         O  0.91918382  0.94953532  0.12004232    -0.74200
O11         O  0.99908320  0.97482158  0.18196197    -0.74800
O12         O  0.07919474  0.94705922  0.11590355    -0.74200
O13         O  0.04576060  0.07387512  0.12724805    -0.74900
O14         O  0.04594385  0.92438325  0.14824856    -0.74300
O15         O  0.07330310  0.03416577  0.10062938    -0.74800
O16         O  0.02826509  0.97972238  0.06596186    -0.74700
O17         O  0.96700669  0.97509675  0.06692844    -0.74500
C18         C  0.93052006  0.06568028  0.11062556     0.77300
C19         C  0.99914993  0.00571090  0.19334696     0.77800
C20         C  0.92431809  0.92576441  0.13785446     0.76700
C21         C  0.07553833  0.92522032  0.13510323     0.77100
C22         C  0.07094655  0.06626714  0.11062397     0.78300
C23         C  0.99718687  0.97732398  0.05435724     0.77300
Zn24       Zn  0.95510775  0.00345952  0.39457468     1.49700
Zn25       Zn  0.04434855  0.00226364  0.39502053     1.49400
Zn26       Zn  0.99924668  0.94596035  0.35678621     1.49100
Zn27       Zn  0.00009781  0.03363303  0.34888553     1.49500
O28         O  0.99980737  0.99515039  0.37404681    -1.84000
O29         O  0.96825628  0.01051612  0.43205813    -0.74600
O30         O  0.07230986  0.95459270  0.39667265    -0.74400
O31         O  0.95409151  0.91647990  0.36977945    -0.73900
O32         O  0.02985859  0.00905969  0.43213951    -0.74600
O33         O  0.92696105  0.95670692  0.39603224    -0.74200
O34         O  0.04392744  0.91572346  0.36957221    -0.74800
O35         O  0.00349263  0.01331254  0.31480854    -0.74200
O36         O  0.07871104  0.04354496  0.38132610    -0.74900
O37         O  0.99983568  0.95212079  0.31640650    -0.74300
O38         O  0.04278267  0.06639226  0.35048296    -0.74800
O39         O  0.95479066  0.06288169  0.34739963    -0.74700
O40         O  0.92028804  0.04321500  0.37991399    -0.74500
C41         C  0.99906415  0.00960910  0.44411141     0.77300
C42         C  0.06911428  0.92280126  0.38630351     0.77800
C43         C  0.92906569  0.92441717  0.38640352     0.76700
C44         C  0.00255021  0.98235523  0.30356180     0.77100
C45         C  0.07296069  0.06643611  0.36292610     0.78300
C46         C  0.92488669  0.06377277  0.36011009     0.77300
Zn47       Zn  0.28905057  0.24667800  0.03771743     1.49700
Zn48       Zn  0.25746692  0.20127148  0.08310477     1.49400
Zn49       Zn  0.25878683  0.29062982  0.08370677     1.49100
Zn50       Zn  0.20034532  0.24685939  0.04645096     1.49500
O51         O  0.25018715  0.24623587  0.06283674    -1.84000
O52         O  0.32262632  0.20448057  0.03916954    -0.74600
O53         O  0.26090186  0.21537028  0.12052099    -0.74400
O54         O  0.29877488  0.32540184  0.07002808    -0.73900
O55         O  0.30125838  0.16949908  0.07095097    -0.74600
O56         O  0.31948572  0.29142213  0.03741215    -0.74200
O57         O  0.26630613  0.27665247  0.12067746    -0.74800
O58         O  0.17136359  0.29244573  0.06027660    -0.74200
O59         O  0.21175728  0.17018519  0.08207956    -0.74900
O60         O  0.21275278  0.31994299  0.08554381    -0.74300
O61         O  0.17045172  0.20069972  0.05845111    -0.74800
O62         O  0.20690406  0.24816820  0.00599933    -0.74700
O63         O  0.26898220  0.24971558  0.50387342    -0.74500
C64         C  0.32438031  0.17550680  0.05274767     0.77300
C65         C  0.26291503  0.24601944  0.13261423     0.77800
C66         C  0.32023745  0.32072965  0.05076036     0.76700
C67         C  0.18033389  0.31821790  0.07621044     0.77100
C68         C  0.17930111  0.17313283  0.07276523     0.78300
C69         C  0.23785729  0.25030121  0.49276591     0.77300
Zn70       Zn  0.29231279  0.25383080  0.32829192     1.49700
Zn71       Zn  0.23488158  0.29722183  0.29069310     1.49400
Zn72       Zn  0.23504046  0.20818069  0.29163425     1.49100
Zn73       Zn  0.20342090  0.25309980  0.33704487     1.49500
O74         O  0.24252006  0.25315085  0.31187454    -1.84000
O75         O  0.32178501  0.29921771  0.31492394    -0.74600
O76         O  0.22812337  0.28239919  0.25361265    -0.74400
O77         O  0.28162740  0.17905557  0.29088331    -0.73900
O78         O  0.28126417  0.32686412  0.28908125    -0.74600
O79         O  0.32207431  0.20826626  0.31587035    -0.74200
O80         O  0.22794814  0.22095258  0.25441759    -0.74800
O81         O  0.17181671  0.20855878  0.33726103    -0.74200
O82         O  0.19469170  0.33161300  0.30458303    -0.74900
O83         O  0.19494573  0.17399820  0.30574203    -0.74300
O84         O  0.17317250  0.29836742  0.33716417    -0.74800
O85         O  0.22485502  0.25160018  0.37100585    -0.74700
O86         O  0.28625066  0.25329797  0.36862873    -0.74500
C87         C  0.31349048  0.32483513  0.29879128     0.77300
C88         C  0.22833375  0.25133552  0.24196134     0.77800
C89         C  0.31385638  0.18161558  0.30050906     0.76700
C90         C  0.17272868  0.17848343  0.32464757     0.77100
C91         C  0.17322675  0.32794930  0.32400609     0.78300
C92         C  0.25619698  0.25158452  0.38183596     0.77300
Zn93       Zn  0.21546916  0.74733141  0.16129451     1.49700
Zn94       Zn  0.30497448  0.74787143  0.17065641     1.49400
Zn95       Zn  0.24766968  0.79402552  0.20610554     1.49100
Zn96       Zn  0.24573556  0.70366703  0.20725229     1.49500
O97         O  0.25462873  0.74816771  0.18646880    -1.84000
O98         O  0.23734499  0.74743882  0.12771138    -0.74600
O99         O  0.33569776  0.79352137  0.18338395    -0.74400
O100        O  0.20693320  0.82750193  0.19173114    -0.73900
O101        O  0.29892060  0.74715535  0.13032218    -0.74600
O102        O  0.18441399  0.79190788  0.16055630    -0.74200
O103        O  0.29445703  0.82406736  0.20700913    -0.74800
O104        O  0.23843559  0.71931767  0.24417085    -0.74200
O105        O  0.33363278  0.70227576  0.18396406    -0.74900
O106        O  0.23991641  0.78094831  0.24322141    -0.74300
O107        O  0.29238892  0.67405713  0.20894676    -0.74800
O108        O  0.20428680  0.66902084  0.19359698    -0.74700
O109        O  0.18354505  0.70290731  0.16130971    -0.74500
C110        C  0.26878796  0.74755703  0.11711006     0.77300
C111        C  0.32717174  0.82075381  0.19815779     0.77800
C112        C  0.18467465  0.82220074  0.17290471     0.76700
C113        C  0.23895093  0.75054391  0.25566968     0.77100
C114        C  0.32499960  0.67639227  0.19973205     0.78300
C115        C  0.18240642  0.67329144  0.17439179     0.77300
Zn116      Zn  0.26491696  0.70898629  0.41470111     1.49700
Zn117      Zn  0.20657491  0.75069052  0.45349921     1.49400
Zn118      Zn  0.29454875  0.75410561  0.46001009     1.49100
Zn119      Zn  0.25832271  0.79743226  0.41445378     1.49500
O120        O  0.25494832  0.75276685  0.43552863    -1.84000
O121        O  0.21974595  0.67823746  0.41354850    -0.74600
O122        O  0.21454539  0.74930960  0.49368450    -0.74400
O123        O  0.33163179  0.71436081  0.45732084    -0.73900
O124        O  0.17908388  0.70502030  0.43991788    -0.74600
O125        O  0.30727693  0.67698597  0.42815649    -0.74200
O126        O  0.27558522  0.74637987  0.99651050    -0.74800
O127        O  0.29437634  0.83549147  0.42912424    -0.74200
O128        O  0.17321465  0.79428322  0.44201326    -0.74900
O129        O  0.31835033  0.80219161  0.46106366    -0.74300
O130        O  0.20900102  0.82158844  0.41277065    -0.74800
O131        O  0.26738144  0.78448124  0.37730703    -0.74700
O132        O  0.27073957  0.72301575  0.37750855    -0.74500
C133        C  0.18765872  0.67993616  0.42344933     0.77300
C134        C  0.24458563  0.74669328  0.00774068     0.77800
C135        C  0.33152283  0.68359319  0.44550532     0.76700
C136        C  0.31546009  0.83232751  0.44880799     0.77100
C137        C  0.17805179  0.81842266  0.42423281     0.78300
C138        C  0.26902716  0.75365076  0.36541959     0.77300
Zn139      Zn  0.49734774  0.04245595  0.48724916     1.49700
Zn140      Zn  0.49837187  0.95370809  0.48141784     1.49400
Zn141      Zn  0.54851320  0.99158845  0.02446696     1.49100
Zn142      Zn  0.46007689  0.99049924  0.02739590     1.49500
O143        O  0.49948636  0.99429310  0.50535204    -1.84000
O144        O  0.49712577  0.03305191  0.44730705    -0.74600
O145        O  0.54036262  0.91928539  0.48402307    -0.74400
O146        O  0.57698764  0.03833205  0.02391038    -0.73900
O147        O  0.50004287  0.97163528  0.44618154    -0.74600
O148        O  0.54140272  0.07514695  0.49904155    -0.74200
O149        O  0.58189775  0.95079269  0.01011457    -0.74800
O150        O  0.47599292  0.98518311  0.06430001    -0.74200
O151        O  0.45143990  0.92728817  0.48104309    -0.74900
O152        O  0.53753713  0.98619030  0.06226834    -0.74300
O153        O  0.42475812  0.95067021  0.01461710    -0.74800
O154        O  0.42991915  0.03586229  0.02818908    -0.74700
O155        O  0.45124618  0.07112315  0.49926711    -0.74500
C156        C  0.49844652  0.00242185  0.43470231     0.77300
C157        C  0.57178485  0.92227552  0.49480414     0.77800
C158        C  0.57277876  0.07078399  0.01494722     0.76700
C159        C  0.50759694  0.98664643  0.07524473     0.77100
C160        C  0.42157528  0.92961888  0.49370225     0.78300
C161        C  0.43013555  0.06712450  0.01713761     0.77300
Zn162      Zn  0.45595431  0.01394177  0.23335439     1.49700
Zn163      Zn  0.49986296  0.95404091  0.26856570     1.49400
Zn164      Zn  0.54647687  0.01278295  0.23378385     1.49100
Zn165      Zn  0.50128278  0.04301851  0.27987867     1.49500
O166        O  0.50086036  0.00493841  0.25375378    -1.84000
O167        O  0.42561263  0.96716212  0.23050809    -0.74600
O168        O  0.54515746  0.92441890  0.25519080    -0.74400
O169        O  0.53275973  0.01842151  0.19649148    -0.73900
O170        O  0.45502504  0.92474281  0.25370241    -0.74600
O171        O  0.47104264  0.02111642  0.19643034    -0.74200
O172        O  0.57658314  0.96632777  0.23274453    -0.74800
O173        O  0.54554862  0.07494907  0.27988200    -0.74200
O174        O  0.49935884  0.95850821  0.30923381    -0.74900
O175        O  0.57962275  0.05504545  0.24723843    -0.74300
O176        O  0.50174678  0.01978166  0.31326554    -0.74800
O177        O  0.45753686  0.07586422  0.28018670    -0.74700
O178        O  0.42312110  0.05642114  0.24748409    -0.74500
C179        C  0.42871984  0.93391733  0.23833317     0.77300
C180        C  0.57258055  0.93334591  0.24078462     0.77800
C181        C  0.50187132  0.01882369  0.18456014     0.76700
C182        C  0.57464661  0.07697532  0.26634792     0.77100
C183        C  0.50091297  0.98790640  0.32326780     0.78300
C184        C  0.42839121  0.07825840  0.26667274     0.77300
Zn185      Zn  0.78351824  0.75132376  0.16214742     1.49700
Zn186      Zn  0.75609103  0.70526002  0.20845512     1.49400
Zn187      Zn  0.75252107  0.79393748  0.20975556     1.49100
Zn188      Zn  0.69545593  0.74932439  0.17255079     1.49500
O189        O  0.74587329  0.74986477  0.18825899    -1.84000
O190        O  0.81954433  0.70989421  0.16279386    -0.74600
O191        O  0.75754699  0.71791927  0.24661350    -0.74400
O192        O  0.79573662  0.82700445  0.19838779    -0.73900
O193        O  0.80081971  0.67484836  0.19517276    -0.74600
O194        O  0.81060939  0.79835646  0.16179062    -0.74200
O195        O  0.75337903  0.77910744  0.24712645    -0.74800
O196        O  0.66537277  0.79489431  0.18515611    -0.74200
O197        O  0.71154673  0.67288885  0.20739121    -0.74900
O198        O  0.70696972  0.82505674  0.20878161    -0.74300
O199        O  0.66769678  0.70348534  0.18616052    -0.74800
O200        O  0.69973291  0.74738456  0.13209434    -0.74700
O201        O  0.76108318  0.74706604  0.12840412    -0.74500
C202        C  0.82258703  0.68056297  0.17606878     0.77300
C203        C  0.75299955  0.74816873  0.25893215     0.77800
C204        C  0.81395030  0.82543596  0.17723253     0.76700
C205        C  0.67425994  0.82207299  0.19985665     0.77100
C206        C  0.67826340  0.67572269  0.19964311     0.78300
C207        C  0.72922523  0.74582855  0.11830320     0.77300
Zn208      Zn  0.75585991  0.70535260  0.45889440     1.49700
Zn209      Zn  0.78198604  0.75004933  0.41071595     1.49400
Zn210      Zn  0.69645727  0.74854718  0.42351861     1.49100
Zn211      Zn  0.75669500  0.79341401  0.45934805     1.49500
O212        O  0.74683907  0.74950715  0.43827073    -1.84000
O213        O  0.79685495  0.67287330  0.44452397    -0.74600
O214        O  0.75833729  0.75401964  0.37718164    -0.74400
O215        O  0.66783492  0.70331566  0.43671361    -0.73900
O216        O  0.80949623  0.70403861  0.40873056    -0.74600
O217        O  0.71100626  0.67409691  0.45935289    -0.74200
O218        O  0.69761851  0.74903500  0.38331923    -0.74800
O219        O  0.71217442  0.82574555  0.45883812    -0.74200
O220        O  0.81771116  0.79085399  0.41223287    -0.74900
O221        O  0.66930430  0.79317555  0.43773139    -0.74300
O222        O  0.80193948  0.82323945  0.44689314    -0.74800
O223        O  0.75829769  0.77951508  0.49727749    -0.74700
O224        O  0.76039684  0.71816309  0.49655502    -0.74500
C225        C  0.81343839  0.67580108  0.42282466     0.77300
C226        C  0.72573001  0.75214034  0.36842190     0.77800
C227        C  0.67809860  0.67632947  0.45096248     0.76700
C228        C  0.67880222  0.82083353  0.45165938     0.77100
C229        C  0.82246156  0.81846226  0.42700298     0.78300
C230        C  0.75687221  0.74513289  0.00860581     0.77300
Zn231      Zn  0.79223702  0.24820727  0.08517811     1.49700
Zn232      Zn  0.76194693  0.29014653  0.03688976     1.49400
Zn233      Zn  0.76238444  0.20156881  0.03988228     1.49100
Zn234      Zn  0.70451066  0.24928695  0.07510825     1.49500
O235        O  0.75433176  0.24715260  0.05916079    -1.84000
O236        O  0.81849793  0.29526020  0.08567579    -0.74600
O237        O  0.76934017  0.27451945  0.00008780    -0.74400
O238        O  0.80670527  0.17087149  0.05299825    -0.73900
O239        O  0.80053748  0.32596167  0.05079919    -0.74600
O240        O  0.82871027  0.20746202  0.08380785    -0.74200
O241        O  0.76457349  0.21332894  0.00189474    -0.74800
O242        O  0.67521676  0.20344951  0.06401111    -0.74200
O243        O  0.71553936  0.31933098  0.03416519    -0.74900
O244        O  0.71670234  0.17091567  0.04181642    -0.74300
O245        O  0.67498793  0.29344713  0.06068804    -0.74800
O246        O  0.70941877  0.25223976  0.11515219    -0.74700
O247        O  0.77051189  0.24615729  0.11947988    -0.74500
C248        C  0.81901084  0.32401299  0.07179966     0.77300
C249        C  0.76266331  0.24675287  0.49061933     0.77800
C250        C  0.83028345  0.17770334  0.07088026     0.76700
C251        C  0.68407176  0.17506591  0.05056001     0.77100
C252        C  0.68339143  0.31814108  0.04397526     0.78300
C253        C  0.73857371  0.24963684  0.12917592     0.77300
Zn254      Zn  0.79770433  0.25107238  0.33597060     1.49700
Zn255      Zn  0.76813548  0.29786430  0.28941953     1.49400
Zn256      Zn  0.76694295  0.20940230  0.28763794     1.49100
Zn257      Zn  0.71034190  0.25284304  0.32575684     1.49500
O258        O  0.76004422  0.25291561  0.30965548    -1.84000
O259        O  0.83086612  0.29478897  0.33608971    -0.74600
O260        O  0.77072485  0.28547343  0.25122017    -0.74400
O261        O  0.80752921  0.17456749  0.30021249    -0.73900
O262        O  0.81116204  0.32918441  0.30340077    -0.74600
O263        O  0.82622231  0.20464207  0.33534033    -0.74200
O264        O  0.77029436  0.22415809  0.25026418    -0.74800
O265        O  0.68113818  0.20753104  0.31342341    -0.74200
O266        O  0.72271268  0.32927681  0.29040372    -0.74900
O267        O  0.72111933  0.17916365  0.28771009    -0.74300
O268        O  0.68140373  0.29800645  0.31340359    -0.74800
O269        O  0.71424334  0.25237945  0.36568045    -0.74700
O270        O  0.77544393  0.25026732  0.37028157    -0.74500
C271        C  0.83251612  0.32432036  0.32284889     0.77300
C272        C  0.76865824  0.25519019  0.23861285     0.77800
C273        C  0.82696737  0.17633736  0.32080803     0.76700
C274        C  0.68929578  0.18109085  0.29796266     0.77100
C275        C  0.69012594  0.32570675  0.29930039     0.78300
C276        C  0.74323834  0.25067580  0.37985524     0.77300
Zn277      Zn  0.54541438  0.49099225  0.48297571     1.49700
Zn278      Zn  0.49746358  0.54500741  0.01605875     1.49400
Zn279      Zn  0.45623572  0.49302748  0.48147875     1.49100
Zn280      Zn  0.49979408  0.45791755  0.02552163     1.49500
O281        O  0.50016414  0.50037178  0.50287272    -1.84000
O282        O  0.57752674  0.53622078  0.48332728    -0.74600
O283        O  0.45173580  0.57328147  0.00356435    -0.74400
O284        O  0.47115362  0.48662312  0.44443075    -0.73900
O285        O  0.54095443  0.57566911  0.00263092    -0.74600
O286        O  0.53277139  0.48779971  0.44467636    -0.74200
O287        O  0.42796291  0.53997138  0.47931268    -0.74800
O288        O  0.45378820  0.42919251  0.02593544    -0.74200
O289        O  0.49961073  0.54071816  0.05629543    -0.74900
O290        O  0.42074662  0.45318975  0.49494686    -0.74300
O291        O  0.50483860  0.47967212  0.05996143    -0.74800
O292        O  0.54148145  0.42268014  0.02265163    -0.74700
O293        O  0.57511392  0.44671965  0.49752968    -0.74500
C294        C  0.57326864  0.56930879  0.49130884     0.77300
C295        C  0.43181031  0.57271449  0.48791498     0.77800
C296        C  0.50198245  0.48798770  0.43251894     0.76700
C297        C  0.42539169  0.42613232  0.01163207     0.77100
C298        C  0.50375595  0.51158085  0.07009598     0.78300
C299        C  0.57040993  0.42116760  0.00884850     0.77300
Zn300      Zn  0.45732727  0.48951008  0.22945030     1.49700
Zn301      Zn  0.54685949  0.48969413  0.23139008     1.49400
Zn302      Zn  0.50099129  0.54689448  0.26789138     1.49100
Zn303      Zn  0.50038488  0.45848153  0.27700320     1.49500
O304        O  0.50123973  0.49702717  0.25134001    -1.84000
O305        O  0.47330515  0.48769169  0.19180843    -0.74600
O306        O  0.57659469  0.53613040  0.23128793    -0.74400
O307        O  0.45559679  0.57600056  0.25493635    -0.73900
O308        O  0.53481612  0.48529750  0.19343071    -0.74600
O309        O  0.42621476  0.53519575  0.22993437    -0.74200
O310        O  0.54511082  0.57724063  0.25449949    -0.74800
O311        O  0.49899902  0.48051733  0.31122351    -0.74200
O312        O  0.57991842  0.44793511  0.24532595    -0.74900
O313        O  0.50162581  0.54183429  0.30843786    -0.74300
O314        O  0.54496644  0.42677104  0.27723547    -0.74800
O315        O  0.45622514  0.42619527  0.27532204    -0.74700
O316        O  0.42408398  0.44598306  0.24150505    -0.74500
C317        C  0.50480183  0.48792320  0.18057429     0.77300
C318        C  0.57217522  0.56893577  0.23966145     0.77800
C319        C  0.42903665  0.56742749  0.23964401     0.76700
C320        C  0.49991193  0.51205388  0.32189060     0.77100
C321        C  0.57461778  0.42570972  0.26417308     0.78300
C322        C  0.42800268  0.42415313  0.26080007     0.77300
Zn323      Zn  0.99933090  0.46043203  0.09802025     1.49700
Zn324      Zn  0.04216642  0.48732148  0.14603551     1.49400
Zn325      Zn  0.00131631  0.54822876  0.10906705     1.49100
Zn326      Zn  0.95246475  0.49173722  0.14291453     1.49500
O327        O  0.99909964  0.49793732  0.12422383    -1.84000
O328        O  0.04046711  0.42493816  0.09959225    -0.74600
O329        O  0.07524745  0.53196177  0.14761568    -0.74400
O330        O  0.00361341  0.54424153  0.06887805    -0.73900
O331        O  0.07392937  0.44314035  0.13313601    -0.74600
O332        O  0.00468172  0.48313193  0.06483411    -0.74200
O333        O  0.04779198  0.57409421  0.12293669    -0.74800
O334        O  0.92496804  0.53924809  0.14440642    -0.74200
O335        O  0.02406999  0.48271737  0.18276630    -0.74900
O336        O  0.95696789  0.58005260  0.12175075    -0.74300
O337        O  0.96251080  0.48268911  0.18029875    -0.74800
O338        O  0.91768165  0.45385175  0.12696443    -0.74700
O339        O  0.95286143  0.43307507  0.09507783    -0.74500
C340        C  0.06877791  0.42153712  0.11380652     0.77300
C341        C  0.07394008  0.56449266  0.13822136     0.77800
C342        C  0.00557851  0.51497502  0.05487767     0.76700
C343        C  0.92948517  0.57213820  0.13637537     0.77100
C344        C  0.99223072  0.48331867  0.19352025     0.78300
C345        C  0.92234965  0.43357402  0.10702825     0.77300
Zn346      Zn  0.95664387  0.51592540  0.35295704     1.49700
Zn347      Zn  0.00388382  0.46240228  0.39060258     1.49400
Zn348      Zn  0.04519927  0.51938650  0.35124917     1.49100
Zn349      Zn  0.00213132  0.55021313  0.39797436     1.49500
O350        O  0.00209565  0.51100598  0.37309708    -1.84000
O351        O  0.92946974  0.46855229  0.35315118    -0.74600
O352        O  0.04928792  0.43450647  0.37792717    -0.74400
O353        O  0.02922803  0.52207343  0.31411110    -0.73900
O354        O  0.95970431  0.43033502  0.37902722    -0.74600
O355        O  0.96768148  0.52074075  0.31505568    -0.74200
O356        O  0.07633325  0.47420748  0.35110461    -0.74800
O357        O  0.04427429  0.58427347  0.39552865    -0.74200
O358        O  0.00575306  0.46906606  0.43048387    -0.74900
O359        O  0.07823509  0.56216291  0.36335065    -0.74300
O360        O  0.00533695  0.53046914  0.43258765    -0.74800
O361        O  0.95582917  0.57775712  0.39899601    -0.74700
O362        O  0.92127542  0.55424097  0.36755799    -0.74500
C363        C  0.93331635  0.43673735  0.36314445     0.77300
C364        C  0.07468707  0.44255589  0.36170698     0.77800
C365        C  0.99811531  0.51935700  0.30262765     0.76700
C366        C  0.07330507  0.58510964  0.38184842     0.77100
C367        C  0.00612379  0.49924999  0.44350318     0.78300
C368        C  0.92536546  0.57560045  0.38702595     0.77300
C369        C  0.02074063  0.47747865  0.23679132    -0.20100
C370        C  0.99032295  0.48880413  0.22195775    -0.06700
C371        C  0.96195427  0.51007778  0.23395695     0.14200
C372        C  0.96582884  0.52047791  0.26005524    -0.20200
C373        C  0.99713448  0.51044270  0.27455633    -0.06700
C374        C  0.02441549  0.48756406  0.26285655     0.14100
C375        C  0.05684595  0.47213079  0.27775848    -0.23500
H376        H  0.04220315  0.46087521  0.22776649     0.15400
H377        H  0.94429965  0.53686181  0.26919039     0.15500
C378        C  0.92810809  0.52323329  0.21943774    -0.23500
H379        H  0.07382874  0.45299269  0.26580746     0.05700
H380        H  0.04653628  0.45626007  0.29469002     0.08900
H381        H  0.07531891  0.49486492  0.28425812     0.08900
H382        H  0.91194276  0.49908118  0.21231654     0.08900
H383        H  0.93649505  0.54094208  0.20290253     0.08900
H384        H  0.90940101  0.53990840  0.23193449     0.05700
C385        C  0.02628355  0.48519652  0.01433499    -0.20100
C386        C  0.00838899  0.51553170  0.02629364    -0.06700
C387        C  0.98928320  0.54119921  0.01078061     0.14200
C388        C  0.98131979  0.52424861  0.48417740    -0.20200
C389        C  0.00654656  0.50021270  0.47200850    -0.06700
C390        C  0.03477056  0.48357600  0.48674468     0.14100
C391        C  0.06359083  0.45924248  0.47426618    -0.23500
H392        H  0.04103935  0.46535971  0.02619759     0.15400
H393        H  0.96003380  0.53755182  0.47260518     0.15500
C394        C  0.96875390  0.57358226  0.02231694    -0.23500
H395        H  0.08413219  0.44904201  0.48860916     0.05700
H396        H  0.07875166  0.47510870  0.45919220     0.08900
H397        H  0.05006588  0.43486274  0.46517969     0.08900
H398        H  0.98847342  0.59203445  0.03262675     0.08900
H399        H  0.94736578  0.56351122  0.03606517     0.08900
H400        H  0.95454738  0.59027377  0.00722536     0.05700
C401        C  0.52563146  0.52033566  0.39323680    -0.20100
C402        C  0.50155544  0.49374173  0.40405860    -0.06700
C403        C  0.47514483  0.47632125  0.38793655     0.14200
C404        C  0.47375064  0.48553240  0.36161875    -0.20200
C405        C  0.49814063  0.51149582  0.35059248    -0.06700
C406        C  0.52424296  0.52941665  0.36666987     0.14100
C407        C  0.55135542  0.55694526  0.35576469    -0.23500
H408        H  0.54537821  0.53433830  0.40567372     0.15400
H409        H  0.45407758  0.47132567  0.34922276     0.15500
C410        C  0.44938707  0.44672533  0.39797231    -0.23500
H411        H  0.57018440  0.56800310  0.37097353     0.05700
H412        H  0.53610103  0.58059768  0.34714274     0.08900
H413        H  0.56857376  0.54351669  0.34061470     0.08900
H414        H  0.42944067  0.45870702  0.41197793     0.08900
H415        H  0.46569982  0.42449479  0.40748084     0.08900
H416        H  0.43296089  0.43385479  0.38214140     0.05700
C417        C  0.53518230  0.49042006  0.10969962    -0.20100
C418        C  0.50739805  0.51261482  0.09863930    -0.06700
C419        C  0.47986297  0.52788594  0.11475823     0.14200
C420        C  0.47960166  0.51882123  0.14127180    -0.20200
C421        C  0.50651667  0.49521404  0.15220499    -0.06700
C422        C  0.53543714  0.48183271  0.13620757     0.14100
C423        C  0.56585614  0.45728757  0.14648644    -0.23500
H424        H  0.55622701  0.47858346  0.09719592     0.15400
H425        H  0.45815577  0.53033412  0.15356276     0.15500
C426        C  0.44993787  0.55239942  0.10389166    -0.23500
H427        H  0.58446746  0.44742360  0.13079031     0.05700
H428        H  0.55367295  0.43262295  0.15602187     0.08900
H429        H  0.58326316  0.47284974  0.16051550     0.08900
H430        H  0.43390671  0.53716030  0.08893871     0.08900
H431        H  0.46264231  0.57737286  0.09504505     0.08900
H432        H  0.43035731  0.56172302  0.11915898     0.05700
C433        C  0.87654725  0.41771282  0.33904493    -0.20100
C434        C  0.90715538  0.40705452  0.35437299    -0.06700
C435        C  0.91333331  0.36877603  0.35847487     0.14200
C436        C  0.88916988  0.34281053  0.34715386    -0.20200
C437        C  0.85889828  0.35355744  0.33164120    -0.06700
C438        C  0.85257939  0.39175791  0.32760625     0.14100
C439        C  0.82022664  0.40576306  0.31189242    -0.23500
H440        H  0.87125749  0.44683793  0.33572166     0.15400
H441        H  0.89404773  0.31361270  0.35051412     0.15500
C442        C  0.94539813  0.35462453  0.37435994    -0.23500
H443        H  0.81910595  0.43649195  0.31148843     0.05700
H444        H  0.79382115  0.39574287  0.32038914     0.08900
H445        H  0.82267577  0.39607794  0.29153930     0.08900
H446        H  0.94333734  0.36525824  0.39450012     0.08900
H447        H  0.97198076  0.36350881  0.36552935     0.08900
H448        H  0.94571932  0.32392012  0.37538800     0.05700
C449        C  0.62409674  0.34074998  0.29085538    -0.20100
C450        C  0.66111344  0.35279699  0.29135609    -0.06700
C451        C  0.66944448  0.38904862  0.28236616     0.14200
C452        C  0.64074349  0.41158723  0.27286519    -0.20200
C453        C  0.60388908  0.39933539  0.27230059    -0.06700
C454        C  0.59545952  0.36339220  0.28154919     0.14100
C455        C  0.55653210  0.34808812  0.28098125    -0.23500
H456        H  0.61747375  0.31295223  0.29733406     0.15400
H457        H  0.64702977  0.43944775  0.26632077     0.15500
C458        C  0.70815159  0.40485617  0.28323026    -0.23500
H459        H  0.55567239  0.31853958  0.28688007     0.05700
H460        H  0.54506213  0.35002291  0.26106770     0.08900
H461        H  0.53860995  0.36360722  0.29464534     0.08900
H462        H  0.72639225  0.38987068  0.26947614     0.08900
H463        H  0.71944533  0.40280549  0.30319811     0.08900
H464        H  0.70865138  0.43451905  0.27759683     0.05700
C465        C  0.75559211  0.21615386  0.41971846    -0.20100
C466        C  0.74135756  0.24825644  0.40821303    -0.06700
C467        C  0.73452818  0.27968503  0.42357261     0.14200
C468        C  0.74241669  0.27837102  0.45019242    -0.20200
C469        C  0.75724387  0.24633536  0.46195084    -0.06700
C470        C  0.76335314  0.21451030  0.44634142     0.01300
C471        C  0.77898987  0.17898678  0.45708151    -0.23500
H472        H  0.76180837  0.19249635  0.40750174     0.15400
H473        H  0.73688327  0.30271662  0.46183990     0.15500
C474        C  0.72029261  0.31499338  0.41169621    -0.23500
H475        H  0.78411297  0.15819425  0.44161412     0.05700
H476        H  0.75910244  0.16640996  0.47090119     0.08900
H477        H  0.80580597  0.18453926  0.46688714     0.08900
H478        H  0.69309386  0.30978028  0.40230962     0.08900
H479        H  0.74020755  0.32517226  0.39693115     0.08900
H480        H  0.71655512  0.33710860  0.42644517     0.05700
C481        C  0.75002418  0.22143524  0.19852451    -0.20100
C482        C  0.76019820  0.25534565  0.21020310    -0.06700
C483        C  0.75817205  0.28814848  0.19502561     0.14200
C484        C  0.74704925  0.28571807  0.16895492    -0.20200
C485        C  0.73760566  0.25178062  0.15755340    -0.06700
C486        C  0.73908693  0.21930542  0.17248213     0.14100
C487        C  0.73018226  0.18218065  0.16062613    -0.23500
H488        H  0.75067984  0.19611614  0.20974806     0.15400
H489        H  0.74738045  0.31034352  0.15692884     0.15500
C490        C  0.76842095  0.32577441  0.20555577    -0.23500
H491        H  0.73232456  0.15945414  0.17501314     0.05700
H492        H  0.74975391  0.17611300  0.14458607     0.08900
H493        H  0.70146802  0.18247015  0.15289773     0.08900
H494        H  0.79722545  0.32529602  0.21310296     0.08900
H495        H  0.74887411  0.33394140  0.22113758     0.08900
H496        H  0.76701830  0.34753381  0.19039708     0.05700
C497        C  0.86140010  0.37603968  0.06263743    -0.20100
C498        C  0.84157473  0.35541806  0.08084460    -0.06700
C499        C  0.84474471  0.36418156  0.10760020     0.14200
C500        C  0.87004459  0.39133239  0.11546144    -0.20200
C501        C  0.89238503  0.40952916  0.09740698    -0.06700
C502        C  0.88698773  0.40293855  0.07053419     0.14100
C503        C  0.90769167  0.42425046  0.04998143    -0.23500
H504        H  0.85807154  0.36994581  0.04219462     0.15400
H505        H  0.87360078  0.39716418  0.13592306     0.15500
C506        C  0.82143732  0.34546751  0.12806612    -0.23500
H507        H  0.89729659  0.41771588  0.03022806     0.05700
H508        H  0.93755714  0.41708239  0.05033351     0.08900
H509        H  0.90414108  0.45443893  0.05319329     0.08900
H510        H  0.82932882  0.31592378  0.13000023     0.08900
H511        H  0.79164632  0.34766424  0.12292425     0.08900
H512        H  0.82525201  0.35843759  0.14741903     0.05700
C513        C  0.61763996  0.33406060  0.03452288    -0.20100
C514        C  0.65497497  0.34499916  0.03463205    -0.06700
C515        C  0.66433735  0.38038912  0.02450728     0.14200
C516        C  0.63621801  0.40364731  0.01504311    -0.20200
C517        C  0.59888879  0.39301571  0.01552887    -0.06700
C518        C  0.58953769  0.35742569  0.02514074     0.14100
C519        C  0.55015718  0.34333399  0.02503758    -0.23500
H520        H  0.61034139  0.30673896  0.04164225     0.15400
H521        H  0.61523175  0.38826948  0.48661009     0.15500
C522        C  0.66769862  0.33629755  0.49260388    -0.23500
H523        H  0.54856548  0.31384524  0.03103870     0.05700
H524        H  0.53837468  0.34547156  0.00522036     0.08900
H525        H  0.53294529  0.35942490  0.03881434     0.08900
H526        H  0.66475913  0.30572659  0.49350920     0.08900
H527        H  0.69728327  0.34404509  0.49466590     0.08900
H528        H  0.65863816  0.34535888  0.47304827     0.05700
C529        C  0.86059645  0.62820759  0.43158842    -0.20100
C530        C  0.83850704  0.64662618  0.41351465    -0.06700
C531        C  0.84233504  0.63842723  0.38671180     0.14200
C532        C  0.87015828  0.61403116  0.37869307    -0.20200
C533        C  0.89428514  0.59804726  0.39663976    -0.06700
C534        C  0.88858566  0.60405922  0.42355166     0.14100
C535        C  0.91129356  0.58479085  0.44404392    -0.23500
H536        H  0.85698690  0.63391668  0.45204624     0.15400
H537        H  0.87397285  0.60848870  0.35823590     0.15500
C538        C  0.81711712  0.65477426  0.36635477    -0.23500
H539        H  0.90059126  0.59037530  0.46385165     0.05700
H540        H  0.94039210  0.59465812  0.44356237     0.08900
H541        H  0.91035007  0.55440592  0.44084738     0.08900
H542        H  0.82209340  0.68494495  0.36441839     0.08900
H543        H  0.78773809  0.64963465  0.37158045     0.08900
H544        H  0.82201476  0.64226507  0.34698103     0.05700
C545        C  0.61502680  0.65946048  0.46598140    -0.20100
C546        C  0.65109392  0.64805331  0.45975223    -0.06700
C547        C  0.66153081  0.61082727  0.46445725     0.14200
C548        C  0.63584375  0.58639139  0.47551937    -0.20200
C549        C  0.59995832  0.59788029  0.48227565    -0.06700
C550        C  0.58935487  0.63502474  0.47723789     0.14100
C551        C  0.54830758  0.64990773  0.98680184    -0.23500
H552        H  0.60713535  0.68797714  0.46258959     0.15400
H553        H  0.64390174  0.55792051  0.47888078     0.15500
C554        C  0.69929561  0.59611140  0.45725314    -0.23500
H555        H  0.54547547  0.68012390  0.98340693     0.05700
H556        H  0.54510964  0.64512216  0.00791412     0.08900
H557        H  0.52563699  0.63581093  0.97605465     0.08900
H558        H  0.72097822  0.60889220  0.46962248     0.08900
H559        H  0.70508875  0.60199969  0.43654433     0.08900
H560        H  0.70118360  0.56569328  0.46004964     0.05700
C561        C  0.74187768  0.78233085  0.30014797    -0.20100
C562        C  0.74396626  0.74797478  0.28722227    -0.06700
C563        C  0.73361512  0.71545577  0.30103781     0.14200
C564        C  0.72324828  0.71831278  0.32724244    -0.20200
C565        C  0.72277248  0.75247469  0.34007122    -0.06700
C566        C  0.73177312  0.78486844  0.32630276     0.14100
C567        C  0.73178926  0.82213315  0.33952718    -0.23500
H568        H  0.74883291  0.80754970  0.28992108     0.15400
H569        H  0.71760192  0.69342024  0.33826968     0.15500
C570        C  0.73361275  0.67749312  0.28879790    -0.23500
H571        H  0.73876915  0.84482357  0.32587912     0.05700
H572        H  0.75253941  0.82254356  0.35541582     0.08900
H573        H  0.70390656  0.82775881  0.34768883     0.08900
H574        H  0.76199166  0.67029026  0.28221632     0.08900
H575        H  0.71403274  0.67677280  0.27220409     0.08900
H576        H  0.72473092  0.65573184  0.30265314     0.05700
C577        C  0.75339070  0.71565070  0.07926496    -0.20100
C578        C  0.72906494  0.74209067  0.08981100    -0.06700
C579        C  0.71362157  0.76920668  0.07347687     0.14200
C580        C  0.72381672  0.76987623  0.04715114    -0.20200
C581        C  0.74914617  0.74407120  0.03680902    -0.06700
C582        C  0.76365086  0.71623118  0.05309080     0.14100
C583        C  0.79142484  0.68823350  0.04344676    -0.23500
H584        H  0.76586401  0.69531302  0.09201623     0.15400
H585        H  0.71189419  0.79069523  0.03454337     0.15500
C586        C  0.68779313  0.79828372  0.08398442    -0.23500
H587        H  0.80202218  0.67051883  0.05937571     0.05700
H588        H  0.81546506  0.70271505  0.03463964     0.08900
H589        H  0.77841998  0.66967641  0.02891647     0.08900
H590        H  0.70203599  0.81469389  0.09924080     0.08900
H591        H  0.66291913  0.78478927  0.09240508     0.08900
H592        H  0.67844360  0.81761911  0.06861155     0.05700
C593        C  0.87580382  0.59007902  0.16430091    -0.20100
C594        C  0.90258087  0.60098206  0.14584689    -0.06700
C595        C  0.90338931  0.63866918  0.13829118     0.14200
C596        C  0.87793559  0.66374138  0.14931943    -0.20200
C597        C  0.85105310  0.65270299  0.16764052    -0.06700
C598        C  0.85017849  0.61503042  0.17512418     0.14100
C599        C  0.82190964  0.60027271  0.19398715    -0.23500
H600        H  0.87466892  0.56145884  0.17049658     0.15400
H601        H  0.87889918  0.69242746  0.14322232     0.15500
C602        C  0.93045961  0.65298886  0.11846012    -0.23500
H603        H  0.82505897  0.57004215  0.19718693     0.05700
H604        H  0.79350777  0.60500663  0.18638003     0.08900
H605        H  0.82523227  0.61412580  0.21305094     0.08900
H606        H  0.92679396  0.63779380  0.09990088     0.08900
H607        H  0.95924114  0.64957389  0.12562527     0.08900
H608        H  0.92627450  0.68289745  0.11442697     0.05700
C609        C  0.61395944  0.65798504  0.21230552    -0.20100
C610        C  0.65102344  0.64730353  0.20840575    -0.06700
C611        C  0.66175409  0.61073802  0.21516879     0.14200
C612        C  0.63555433  0.58659932  0.22601693    -0.20200
C613        C  0.59882943  0.59757271  0.23059664    -0.06700
C614        C  0.58776893  0.63369366  0.22326382     0.14100
C615        C  0.54822187  0.64649393  0.22605692    -0.23500
H616        H  0.60552000  0.68584149  0.20723389     0.15400
H617        H  0.64389335  0.55867070  0.23101030     0.15500
C618        C  0.70044406  0.59624553  0.21055995    -0.23500
H619        H  0.54423951  0.67490118  0.21832994     0.05700
H620        H  0.54027648  0.64688519  0.24680334     0.08900
H621        H  0.52947416  0.62763017  0.21518579     0.08900
H622        H  0.72048520  0.61035429  0.22356526     0.08900
H623        H  0.70840820  0.60057726  0.19001606     0.08900
H624        H  0.70252933  0.56612789  0.21462535     0.05700
C625        C  0.58537518  0.86990254  0.22354721    -0.20100
C626        C  0.59914604  0.90464045  0.23133483    -0.06700
C627        C  0.63724848  0.91236447  0.22751297     0.14200
C628        C  0.66022347  0.88539487  0.21622475    -0.20200
C629        C  0.64662320  0.85059605  0.20833408    -0.06700
C630        C  0.60842563  0.84293540  0.21199528     0.14100
C631        C  0.59177636  0.80621122  0.20444021    -0.23500
H632        H  0.55613642  0.86407703  0.22603203     0.15400
H633        H  0.68939954  0.89155457  0.21374198     0.15500
C634        C  0.65441201  0.94850745  0.23604443    -0.23500
H635        H  0.56182475  0.80475534  0.20923920     0.05700
H636        H  0.60599296  0.78349703  0.21494244     0.08900
H637        H  0.59456584  0.80195979  0.18322083     0.08900
H638        H  0.64841410  0.95344827  0.25686061     0.08900
H639        H  0.64342829  0.97171054  0.22428990     0.08900
H640        H  0.68499386  0.94844393  0.23358926     0.05700
C641        C  0.64083588  0.09507397  0.27040392    -0.20100
C642        C  0.60348905  0.10435762  0.27398448    -0.06700
C643        C  0.59464949  0.13842728  0.28629520     0.14200
C644        C  0.62328601  0.16219606  0.29422557    -0.20200
C645        C  0.66071953  0.15310493  0.29055981    -0.06700
C646        C  0.66955752  0.11861841  0.27867099     0.14100
C647        C  0.70895432  0.10557734  0.27504402    -0.23500
H648        H  0.64765213  0.06868940  0.26151607     0.15400
H649        H  0.61620232  0.18849923  0.30310851     0.15500
C650        C  0.55515765  0.15071095  0.29067390    -0.23500
H651        H  0.71017585  0.07681950  0.26742967     0.05700
H652        H  0.72376658  0.10596233  0.29392248     0.08900
H653        H  0.72350623  0.12344060  0.26085606     0.08900
H654        H  0.54142908  0.13238016  0.30498744     0.08900
H655        H  0.53968255  0.15022328  0.27210053     0.08900
H656        H  0.55367728  0.17932600  0.29852552     0.05700
C657        C  0.47718912  0.97206112  0.39418388    -0.20100
C658        C  0.49803154  0.00055864  0.40605773    -0.06700
C659        C  0.52145349  0.02255597  0.39071719     0.14200
C660        C  0.52348133  0.01560322  0.36403264    -0.20200
C661        C  0.50215743  0.98764354  0.35197867    -0.06700
C662        C  0.47860419  0.96562883  0.36730919     0.14100
C663        C  0.45396182  0.93653850  0.35540433    -0.23500
H664        H  0.45942289  0.95483942  0.40606652     0.15400
H665        H  0.54144912  0.03280340  0.35228922     0.15500
C666        C  0.54503612  0.05270509  0.40241166    -0.23500
H667        H  0.43660780  0.92252963  0.37020354     0.05700
H668        H  0.47112235  0.91516951  0.34568288     0.08900
H669        H  0.43513247  0.94951175  0.34099169     0.08900
H670        H  0.56367884  0.04082707  0.41735062     0.08900
H671        H  0.52703854  0.07407227  0.41139985     0.08900
H672        H  0.56248394  0.06658231  0.38762529     0.05700
C673        C  0.48085485  0.97712215  0.11874973    -0.20100
C674        C  0.50893350  0.99269685  0.10354862    -0.06700
C675        C  0.53418105  0.01806205  0.11502991     0.14200
C676        C  0.53043715  0.02707242  0.14134492    -0.20200
C677        C  0.50191403  0.01196751  0.15638201    -0.06700
C678        C  0.47715766  0.98607092  0.14502362     0.14100
C679        C  0.44767231  0.96643304  0.16056695    -0.23500
H680        H  0.46151412  0.95789825  0.10992321     0.15400
H681        H  0.54983131  0.04615391  0.15026533     0.15500
C682        C  0.56422700  0.03700134  0.09962573    -0.23500
H683        H  0.43244050  0.94568182  0.14875836     0.05700
H684        H  0.42703844  0.98665171  0.16786897     0.08900
H685        H  0.46057780  0.95156565  0.17710380     0.08900
H686        H  0.55180187  0.05260172  0.08325775     0.08900
H687        H  0.58410902  0.01617877  0.09210218     0.08900
H688        H  0.58019805  0.05698863  0.11162132     0.05700
C689        C  0.59002403  0.85976839  0.48043758    -0.20100
C690        C  0.60087123  0.89608836  0.48648102    -0.06700
C691        C  0.63720492  0.90783215  0.48040448     0.14200
C692        C  0.66146585  0.88303094  0.46813627    -0.20200
C693        C  0.65044802  0.84677956  0.46172428    -0.06700
C694        C  0.61425139  0.83487520  0.46834644     0.14100
C695        C  0.60101924  0.79579549  0.46360049    -0.23500
H696        H  0.56211163  0.85092806  0.48500262     0.15400
H697        H  0.68928611  0.89205693  0.46348924     0.15500
C698        C  0.63655219  0.89738274  0.02630070    -0.23500
H699        H  0.57258882  0.79123944  0.47115624     0.05700
H700        H  0.61965898  0.77585043  0.47350926     0.08900
H701        H  0.60036724  0.78992980  0.44249609     0.08900
H702        H  0.61032439  0.89013476  0.03633639     0.08900
H703        H  0.64236647  0.92734084  0.02875181     0.08900
H704        H  0.65938127  0.88189937  0.03583414     0.05700
C705        C  0.63686599  0.08662255  0.02756079    -0.20100
C706        C  0.60063521  0.09896378  0.02279143    -0.06700
C707        C  0.59142294  0.13610131  0.02872754     0.14200
C708        C  0.61891095  0.15979979  0.03874936    -0.20200
C709        C  0.65539163  0.14752667  0.04297571    -0.06700
C710        C  0.66427882  0.11010804  0.03750957     0.14100
C711        C  0.70223317  0.09412630  0.04268842    -0.23500
H712        H  0.64394946  0.05770882  0.02345016     0.15400
H713        H  0.60506164  0.18323933  0.54869200     0.15500
C714        C  0.54557058  0.14303950  0.53355822    -0.23500
H715        H  0.70282362  0.06365291  0.03968769     0.05700
H716        H  0.71041871  0.09965890  0.06305737     0.08900
H717        H  0.72289728  0.10622336  0.02926267     0.08900
H718        H  0.53043459  0.12230575  0.54541020     0.08900
H719        H  0.53295897  0.14443668  0.51397494     0.08900
H720        H  0.54216179  0.17055526  0.54291150     0.05700
C721        C  0.12279801  0.66824640  0.41051502    -0.20100
C722        C  0.15886021  0.65437318  0.41341316    -0.06700
C723        C  0.16712233  0.61836570  0.40398062     0.14200
C724        C  0.13898759  0.59735476  0.39220290    -0.20200
C725        C  0.10284413  0.61110383  0.38975050    -0.06700
C726        C  0.09473357  0.64720317  0.39882376     0.14100
C727        C  0.05680401  0.66419015  0.39568349    -0.23500
H728        H  0.11663381  0.69617073  0.41700247     0.15400
H729        H  0.14490654  0.56934037  0.38576947     0.15500
C730        C  0.20497373  0.60117050  0.40707075    -0.23500
H731        H  0.05645841  0.69368809  0.40179397     0.05700
H732        H  0.03622960  0.64941258  0.40779777     0.08900
H733        H  0.04827687  0.66293407  0.37503353     0.08900
H734        H  0.21348350  0.60206815  0.42774508     0.08900
H735        H  0.22559560  0.61603077  0.39503449     0.08900
H736        H  0.20523034  0.57174548  0.40075823     0.05700
C737        C  0.38596836  0.66566336  0.47221292    -0.20100
C738        C  0.35878262  0.65498585  0.45402295    -0.06700
C739        C  0.35614389  0.61711723  0.44711745     0.14200
C740        C  0.38003080  0.59145765  0.45884236    -0.20200
C741        C  0.40660446  0.60199595  0.47753254    -0.06700
C742        C  0.40959462  0.63997872  0.48414400     0.14100
C743        C  0.43716125  0.65418417  0.50379823    -0.23500
H744        H  0.38844517  0.69454398  0.47766588     0.15400
H745        H  0.37761503  0.56262487  0.45327604     0.15500
C746        C  0.32797879  0.60293392  0.42787833    -0.23500
H747        H  0.43476919  0.68454898  0.50678411     0.05700
H748        H  0.46581074  0.64858487  0.49709153     0.08900
H749        H  0.43224225  0.64074824  0.52282533     0.08900
H750        H  0.33218147  0.61652796  0.40883642     0.08900
H751        H  0.29951845  0.60840800  0.43507127     0.08900
H752        H  0.33039460  0.57259658  0.42476837     0.05700
C753        C  0.33764424  0.86765084  0.48631906    -0.20100
C754        C  0.33668678  0.86367730  0.45917775    -0.06700
C755        C  0.36005593  0.88542290  0.44363471     0.14200
C756        C  0.38613049  0.90830221  0.45578720    -0.20200
C757        C  0.38937289  0.90974590  0.48300876    -0.06700
C758        C  0.36377489  0.89045762  0.49849003     0.14100
C759        C  0.37933808  0.88614977  0.03030889    -0.23500
H760        H  0.33198310  0.84415956  0.00256147     0.15400
H761        H  0.40513800  0.92410329  0.44392354     0.15500
C762        C  0.35923154  0.88290649  0.41449628    -0.23500
H763        H  0.36073126  0.86597488  0.03998574     0.05700
H764        H  0.37308471  0.91401482  0.03829818     0.08900
H765        H  0.40838056  0.87859369  0.03504284     0.08900
H766        H  0.33151707  0.89130295  0.40724635     0.08900
H767        H  0.36514553  0.85408863  0.40824490     0.08900
H768        H  0.38019233  0.90135456  0.40546508     0.05700
C769        C  0.26583987  0.78041822  0.29432930    -0.20100
C770        C  0.24371727  0.75177700  0.28410442    -0.06700
C771        C  0.23102753  0.72343589  0.30072381     0.14200
C772        C  0.24122967  0.72434402  0.32691570    -0.20200
C773        C  0.26358158  0.75282953  0.33706585    -0.06700
C774        C  0.27594126  0.78135813  0.32053049     0.14100
C775        C  0.30073330  0.81216595  0.33002503    -0.23500
H776        H  0.27630494  0.80176813  0.28156941     0.15400
H777        H  0.23081293  0.70304365  0.33973812     0.15500
C778        C  0.20591023  0.69278889  0.29136346    -0.23500
H779        H  0.31008212  0.83023481  0.31390820     0.05700
H780        H  0.32574652  0.80032271  0.33940230     0.08900
H781        H  0.28568671  0.82996864  0.34401232     0.08900
H782        H  0.22084572  0.67448790  0.27762896     0.08900
H783        H  0.18113069  0.70479680  0.28176691     0.08900
H784        H  0.19614763  0.67514451  0.30758751     0.05700
C785        C  0.24443907  0.77593671  0.07763972    -0.20100
C786        C  0.26757118  0.74882674  0.08868435    -0.06700
C787        C  0.28001617  0.71912700  0.07332380     0.14200
C788        C  0.26961942  0.71770427  0.04713121    -0.20200
C789        C  0.24640437  0.74482661  0.03613596    -0.06700
C790        C  0.23371222  0.77432349  0.05158353     0.14100
C791        C  0.20994636  0.80470327  0.04047483    -0.23500
H792        H  0.23391302  0.79814916  0.08979220     0.15400
H793        H  0.28016713  0.69554821  0.03494396     0.15500
C794        C  0.30315228  0.68849981  0.08468102    -0.23500
H795        H  0.20282643  0.82587460  0.05528894     0.05700
H796        H  0.18370480  0.79280725  0.03292035     0.08900
H797        H  0.22491695  0.81877076  0.02448537     0.08900
H798        H  0.28766201  0.67467691  0.10054145     0.08900
H799        H  0.32934520  0.70009325  0.09251243     0.08900
H800        H  0.31027088  0.66721448  0.06993302     0.05700
C801        C  0.12027446  0.58672430  0.17070370    -0.20100
C802        C  0.10272827  0.59181990  0.14654024    -0.06700
C803        C  0.11273982  0.62289239  0.13147542     0.14200
C804        C  0.13879909  0.64821096  0.14124635    -0.20200
C805        C  0.15564118  0.64388830  0.16576577    -0.06700
C806        C  0.14650696  0.61210096  0.18048719     0.14100
C807        C  0.16365170  0.60468977  0.20659703    -0.23500
H808        H  0.11291644  0.56287864  0.18237485     0.15400
H809        H  0.14605883  0.67182163  0.12933259     0.15500
C810        C  0.09694260  0.62940123  0.10479194    -0.23500
H811        H  0.15258574  0.57898305  0.21550394     0.05700
H812        H  0.15761015  0.62796992  0.21999295     0.08900
H813        H  0.19406771  0.60118265  0.20453226     0.08900
H814        H  0.06682158  0.63517661  0.10607797     0.08900
H815        H  0.10182781  0.60472499  0.09238453     0.08900
H816        H  0.11001317  0.65354761  0.09512949     0.05700
C817        C  0.33966250  0.61522645  0.21945230    -0.20100
C818        C  0.35293410  0.64859671  0.20878035    -0.06700
C819        C  0.39167809  0.65546976  0.20940700     0.14200
C820        C  0.41555195  0.62920376  0.22077140    -0.20200
C821        C  0.40205100  0.59590399  0.23111985    -0.06700
C822        C  0.36356946  0.58882569  0.23034934     0.14100
C823        C  0.34736295  0.55386187  0.24158945    -0.23500
H824        H  0.31018028  0.60958029  0.21926859     0.15400
H825        H  0.44516396  0.63421509  0.22092979     0.15500
C826        C  0.40827358  0.69047038  0.19860992    -0.23500
H827        H  0.31660290  0.55395113  0.24084657     0.05700
H828        H  0.35584662  0.55110309  0.26217737     0.08900
H829        H  0.35700765  0.52936815  0.23049891     0.08900
H830        H  0.39629272  0.71487751  0.20860862     0.08900
H831        H  0.40270518  0.69218456  0.17748253     0.08900
H832        H  0.43878925  0.69141683  0.20132435     0.05700
C833        C  0.34255180  0.88590376  0.20998291    -0.20100
C834        C  0.35505983  0.84941992  0.20623780    -0.06700
C835        C  0.39205386  0.84087514  0.21326324     0.14200
C836        C  0.41497296  0.86865426  0.22416965    -0.20200
C837        C  0.40232678  0.90518338  0.22800117    -0.06700
C838        C  0.36549840  0.91380538  0.22036340     0.14100
C839        C  0.34944356  0.95208343  0.22365172    -0.23500
H840        H  0.31425796  0.89267569  0.20479647     0.15400
H841        H  0.44319709  0.86182623  0.22947860     0.15500
C842        C  0.40717576  0.80226935  0.21023587    -0.23500
H843        H  0.31955587  0.95295360  0.21854844     0.05700
H844        H  0.36383646  0.97190044  0.21068336     0.08900
H845        H  0.35223661  0.96114962  0.24411704     0.08900
H846        H  0.40700490  0.79418781  0.18947317     0.08900
H847        H  0.38999284  0.78256613  0.22151045     0.08900
H848        H  0.43616008  0.80015949  0.21733481     0.05700
C849        C  0.13826580  0.35866528  0.35928919    -0.20100
C850        C  0.14899891  0.35863481  0.33300713    -0.06700
C851        C  0.13662404  0.38758682  0.31678818     0.14200
C852        C  0.11337697  0.41495848  0.32715740    -0.20200
C853        C  0.10154250  0.41408091  0.35313223    -0.06700
C854        C  0.11470865  0.38581647  0.36953235     0.14100
C855        C  0.10506783  0.38456918  0.39794565    -0.23500
H856        H  0.14844642  0.33720787  0.37209523     0.15400
H857        H  0.10374456  0.43689553  0.31463369     0.15500
C858        C  0.14668807  0.38950378  0.28847517    -0.23500
H859        H  0.12011057  0.36208584  0.40815724     0.05700
H860        H  0.07501152  0.37935273  0.40045308     0.08900
H861        H  0.11270071  0.41121329  0.40732543     0.08900
H862        H  0.13793448  0.36365322  0.27851957     0.08900
H863        H  0.17701208  0.39343495  0.28630329     0.08900
H864        H  0.13286480  0.41306127  0.27860430     0.05700
C865        C  0.36193484  0.40983897  0.26984398    -0.20100
C866        C  0.39859930  0.39731996  0.26813074    -0.06700
C867        C  0.40712582  0.36109035  0.27677957     0.14200
C868        C  0.37901474  0.33876712  0.28734046    -0.20200
C869        C  0.34232524  0.35133157  0.28942772    -0.06700
C870        C  0.33370723  0.38751238  0.28035570     0.14100
C871        C  0.29521487  0.40354237  0.28240406    -0.23500
H872        H  0.35555393  0.43784149  0.26367421     0.15400
H873        H  0.38568346  0.31087423  0.29356703     0.15500
C874        C  0.44564149  0.34527583  0.27423250    -0.23500
H875        H  0.29449232  0.43310892  0.27651223     0.05700
H876        H  0.28536715  0.40187977  0.30274069     0.08900
H877        H  0.27589914  0.38839665  0.26943793     0.08900
H878        H  0.46525440  0.36046119  0.28690315     0.08900
H879        H  0.45494809  0.34719505  0.25377224     0.08900
H880        H  0.44662644  0.31568325  0.27999783     0.05700
C881        C  0.36230501  0.09639945  0.27145033    -0.20100
C882        C  0.39971011  0.10577840  0.27456085    -0.06700
C883        C  0.40872416  0.13988767  0.28682818     0.14200
C884        C  0.38017417  0.16338075  0.29544159    -0.20200
C885        C  0.34262801  0.15403622  0.29240741    -0.06700
C886        C  0.33371256  0.11966079  0.28028814     0.14100
C887        C  0.29432537  0.10637147  0.27694245    -0.23500
H888        H  0.35534395  0.07009372  0.26251476     0.15400
H889        H  0.38738056  0.18962591  0.30435347     0.15500
C890        C  0.44829982  0.15248918  0.29038489    -0.23500
H891        H  0.29309063  0.07778096  0.26902885     0.05700
H892        H  0.27932689  0.12441239  0.26308719     0.08900
H893        H  0.27998112  0.10620220  0.29596868     0.08900
H894        H  0.46288953  0.15223593  0.27146839     0.08900
H895        H  0.46286439  0.13420077  0.30431029     0.08900
H896        H  0.44990484  0.18108488  0.29828060     0.05700
C897        C  0.22703393  0.22707480  0.42148204    -0.20100
C898        C  0.25513807  0.24923339  0.41043663    -0.06700
C899        C  0.27620497  0.27254383  0.42659146     0.14200
C900        C  0.26810615  0.27366573  0.45316948    -0.20200
C901        C  0.23965185  0.25188621  0.46416153    -0.06700
C902        C  0.21915774  0.22796610  0.44809066     0.14100
C903        C  0.18999110  0.20252203  0.45894832    -0.23500
H904        H  0.21072485  0.20907130  0.40902775     0.15400
H905        H  0.28450914  0.29155501  0.46564695     0.15500
C906        C  0.30637721  0.29694527  0.41589889    -0.23500
H907        H  0.17726508  0.18498016  0.44362786     0.05700
H908        H  0.16764396  0.21904308  0.46809568     0.08900
H909        H  0.20258063  0.18391172  0.47362307     0.08900
H910        H  0.29466552  0.31607064  0.40122452     0.08900
H911        H  0.32818515  0.27958148  0.40680553     0.08900
H912        H  0.31967108  0.31389093  0.43131066     0.05700
C913        C  0.25117343  0.21816070  0.20320842    -0.20100
C914        C  0.23417155  0.25003900  0.21352327    -0.06700
C915        C  0.22792046  0.28074724  0.19709154     0.14200
C916        C  0.23910743  0.27870616  0.17115064    -0.20200
C917        C  0.25628319  0.24692633  0.16091605    -0.06700
C918        C  0.26227967  0.21611656  0.17724470     0.14100
C919        C  0.28112990  0.18130105  0.16787510    -0.23500
H920        H  0.25679738  0.19477538  0.21571874     0.15400
H921        H  0.23352757  0.30203500  0.15858610     0.15500
C922        C  0.20889324  0.31556208  0.20629822    -0.23500
H923        H  0.28632522  0.16156675  0.18395149     0.05700
H924        H  0.30827557  0.18829845  0.15904576     0.08900
H925        H  0.26340064  0.16677820  0.15351920     0.08900
H926        H  0.22662745  0.33043970  0.22046629     0.08900
H927        H  0.18184772  0.30850166  0.21525088     0.08900
H928        H  0.20342357  0.33503889  0.19010841     0.05700
C929        C  0.13443550  0.40340217  0.10711952    -0.20100
C930        C  0.09692722  0.39354617  0.10606232    -0.06700
C931        C  0.08698366  0.35911035  0.09471311     0.14200
C932        C  0.11470189  0.33575106  0.08476126    -0.20200
C933        C  0.15229612  0.34564541  0.08554502    -0.06700
C934        C  0.16221373  0.38025619  0.09694386     0.14100
C935        C  0.20173351  0.39394072  0.09792735    -0.23500
H936        H  0.14199729  0.43009069  0.11525676     0.15400
H937        H  0.10685844  0.30921355  0.07654224     0.15500
C938        C  0.04725245  0.34617407  0.09349754    -0.23500
H939        H  0.20356050  0.42277700  0.10535287     0.05700
H940        H  0.21391829  0.39361957  0.07817516     0.08900
H941        H  0.21842699  0.37643684  0.11116784     0.08900
H942        H  0.03105108  0.36382576  0.08006867     0.08900
H943        H  0.03477695  0.34710582  0.11312817     0.08900
H944        H  0.04506232  0.31729301  0.08624571     0.05700
C945        C  0.40966006  0.36738189  0.03295248    -0.20100
C946        C  0.39701533  0.39911947  0.01994347    -0.06700
C947        C  0.35845823  0.40579550  0.01815959     0.14200
C948        C  0.33372198  0.38075205  0.02983533    -0.20200
C949        C  0.34674030  0.34928754  0.04287251    -0.06700
C950        C  0.38505462  0.34231498  0.04422329     0.14100
C951        C  0.40005195  0.30848231  0.05772767    -0.23500
H952        H  0.43920167  0.36213276  0.03436415     0.15400
H953        H  0.30407026  0.38516294  0.02820371     0.15500
C954        C  0.34328999  0.43937487  0.00453613    -0.23500
H955        H  0.43081829  0.30787362  0.05761737     0.05700
H956        H  0.39007933  0.28304531  0.04786828     0.08900
H957        H  0.39064674  0.30827070  0.07819289     0.08900
H958        H  0.41179595  0.38141830  0.47472252     0.08900
H959        H  0.35451461  0.46491977  0.01359800     0.08900
H960        H  0.31257634  0.44058199  0.00564501     0.05700
C961        C  0.34135646  0.11095972  0.04252503    -0.20100
C962        C  0.35258887  0.14780633  0.04558367    -0.06700
C963        C  0.38903586  0.15823579  0.03844229     0.14200
C964        C  0.41323901  0.13145023  0.02844277    -0.20200
C965        C  0.40204096  0.09456393  0.02529962    -0.06700
C966        C  0.36544956  0.08419462  0.03230993     0.14100
C967        C  0.35096652  0.04542055  0.02818349    -0.23500
H968        H  0.31311304  0.10334793  0.04734060     0.15400
H969        H  0.39228438  0.11168187  0.48726378     0.15500
C970        C  0.34074391  0.16458957  0.49306108    -0.23500
H971        H  0.32087329  0.04340370  0.03249070     0.05700
H972        H  0.36535756  0.02572441  0.04119190     0.08900
H973        H  0.35510567  0.03702896  0.00767648     0.08900
H974        H  0.34872251  0.19415685  0.49471369     0.08900
H975        H  0.38814327  0.21637717  0.02865545     0.08900
H976        H  0.34949864  0.15498998  0.47355044     0.05700
C977        C  0.89431754  0.09570019  0.32355119    -0.20100
C978        C  0.89567888  0.08904576  0.35046721    -0.06700
C979        C  0.87184746  0.10899919  0.36700794     0.14200
C980        C  0.84912408  0.13657775  0.35639772    -0.20200
C981        C  0.84925570  0.14449714  0.32968489    -0.06700
C982        C  0.87137515  0.12307794  0.31293635     0.14100
C983        C  0.87235472  0.13009392  0.28417417    -0.23500
H984        H  0.91211892  0.07992784  0.31071812     0.15400
H985        H  0.83143978  0.15257727  0.36917367     0.15500
C986        C  0.87129791  0.10264452  0.39584656    -0.23500
H987        H  0.89249801  0.11171939  0.27419217     0.05700
H988        H  0.88062041  0.15921528  0.28042550     0.08900
H989        H  0.84462957  0.12480138  0.27562927     0.08900
H990        H  0.89933017  0.10743619  0.40405631     0.08900
H991        H  0.86235021  0.07384502  0.39997948     0.08900
H992        H  0.85171904  0.12161118  0.40582176     0.05700
C993        C  0.88061000  0.83305490  0.40337356    -0.20100
C994        C  0.85147665  0.84559201  0.41930793    -0.06700
C995        C  0.84828556  0.88390147  0.42424835     0.14200
C996        C  0.87354499  0.90839586  0.41273776    -0.20200
C997        C  0.90232539  0.89609081  0.39630713    -0.06700
C998        C  0.90597173  0.85754307  0.39183597     0.14100
C999        C  0.93630466  0.84159244  0.37513261    -0.23500
H1000       H  0.88326021  0.80365432  0.39954041     0.15400
H1001       H  0.87041917  0.93770841  0.41661971     0.15500
C1002       C  0.81765791  0.89958475  0.44081688    -0.23500
H1003       H  0.93480224  0.81090948  0.37404022     0.05700
H1004       H  0.96381184  0.84894154  0.38330892     0.08900
H1005       H  0.93378724  0.85234029  0.35506747     0.08900
H1006       H  0.81995884  0.88864699  0.46083462     0.08900
H1007       H  0.79029243  0.89208367  0.43246899     0.08900
H1008       H  0.81899744  0.93024190  0.44204553     0.05700
C1009       C  0.09575325  0.88502388  0.42180836    -0.20100
C1010       C  0.09464318  0.89339585  0.39520128    -0.06700
C1011       C  0.11954659  0.87568018  0.37828436     0.14200
C1012       C  0.14562844  0.85075323  0.38843688    -0.20200
C1013       C  0.14736497  0.84271793  0.41514572    -0.06700
C1014       C  0.12151983  0.85961400  0.43198169     0.14100
C1015       C  0.12191824  0.85225314  0.46069115    -0.23500
H1016       H  0.07654793  0.89883532  0.43474952     0.15400
H1017       H  0.16519912  0.83771403  0.37537931     0.15500
C1018       C  0.11973165  0.88426169  0.34973771    -0.23500
H1019       H  0.10069793  0.86892213  0.47103799     0.05700
H1020       H  0.14947965  0.85942504  0.46885611     0.08900
H1021       H  0.11587138  0.82260243  0.46438995     0.08900
H1022       H  0.12477730  0.91430035  0.34678031     0.08900
H1023       H  0.09264838  0.87662216  0.34105636     0.08900
H1024       H  0.14171281  0.86869719  0.33935090     0.05700
C1025       C  0.10396911  0.09906740  0.32704750    -0.20100
C1026       C  0.10157840  0.09280184  0.35395708    -0.06700
C1027       C  0.12389486  0.11379472  0.37091866     0.14200
C1028       C  0.14713713  0.14124816  0.36057282    -0.20200
C1029       C  0.14891432  0.14790060  0.33370939    -0.06700
C1030       C  0.12734173  0.12627078  0.31671037     0.14100
C1031       C  0.12747903  0.13287274  0.28788473    -0.23500
H1032       H  0.08689851  0.08288236  0.31397843     0.15400
H1033       H  0.16392548  0.15784254  0.37356635     0.15500
C1034       C  0.12223705  0.10849079  0.39982870    -0.23500
H1035       H  0.10755242  0.11449576  0.27764605     0.05700
H1036       H  0.15544528  0.12733018  0.27989652     0.08900
H1037       H  0.11957091  0.16200969  0.28379068     0.08900
H1038       H  0.13125130  0.08002679  0.40484953     0.08900
H1039       H  0.09348201  0.11298288  0.40678682     0.08900
H1040       H  0.14065706  0.12822101  0.41019862     0.05700
C1041       C  0.97599939  0.97506245  0.23278344    -0.20100
C1042       C  0.99819304  0.00326777  0.22190903    -0.06700
C1043       C  0.02380171  0.02197755  0.23776233     0.14200
C1044       C  0.02631743  0.01230697  0.26402072    -0.20200
C1045       C  0.00392891  0.98430324  0.27495906    -0.06700
C1046       C  0.97857724  0.96530619  0.25902911     0.14100
C1047       C  0.95352346  0.93564223  0.26966865    -0.23500
H1048       H  0.95679571  0.96007388  0.22044212     0.15400
H1049       H  0.04558429  0.02726093  0.27632669     0.15500
C1050       C  0.04922753  0.05121186  0.22698395    -0.23500
H1051       H  0.93503445  0.92399415  0.25447395     0.05700
H1052       H  0.93584709  0.94730438  0.28525869     0.08900
H1053       H  0.97046038  0.91263711  0.27758914     0.08900
H1054       H  0.03261031  0.07443281  0.21906963     0.08900
H1055       H  0.06660026  0.03919340  0.21134150     0.08900
H1056       H  0.06800903  0.06260319  0.24208312     0.05700
C1057       C  0.03093804  0.98432298  0.01302509    -0.20100
C1058       C  0.99660522  0.98177748  0.02572412    -0.06700
C1059       C  0.96380946  0.98944672  0.01148477     0.14200
C1060       C  0.97131878  0.98120197  0.48308069    -0.20200
C1061       C  0.99888406  0.00428207  0.47253676    -0.06700
C1062       C  0.02743333  0.01767299  0.48879526     0.14100
C1063       C  0.05759666  0.04285437  0.47888196    -0.23500
H1064       H  0.05615416  0.97860157  0.02364880     0.15400
H1065       H  0.95012976  0.96985490  0.47047946     0.15500
C1066       C  0.92555635  0.98727055  0.02322744    -0.23500
H1067       H  0.07564703  0.05306887  0.49479690     0.05700
H1068       H  0.04510203  0.06728140  0.46923172     0.08900
H1069       H  0.07562512  0.02777971  0.46503570     0.08900
H1070       H  0.92259221  0.00819981  0.03885795     0.08900
H1071       H  0.92059469  0.95904081  0.03097268     0.08900
H1072       H  0.90347518  0.99293519  0.00876051     0.05700
C1073       C  0.91631384  0.13109510  0.09900495    -0.20100
C1074       C  0.90422976  0.09423357  0.10084955    -0.06700
C1075       C  0.86846921  0.08493254  0.09120823     0.14200
C1076       C  0.84610551  0.11256706  0.08024264    -0.20200
C1077       C  0.85790357  0.14943451  0.07882055    -0.06700
C1078       C  0.89372080  0.15878892  0.08815505     0.14100
C1079       C  0.90883438  0.19761956  0.08612682    -0.23500
H1080       H  0.94389829  0.13821139  0.10572169     0.15400
H1081       H  0.81848920  0.10552567  0.07355474     0.15500
C1082       C  0.85273644  0.04628969  0.09313917    -0.23500
H1083       H  0.93828501  0.19912750  0.09235499     0.05700
H1084       H  0.89292938  0.21671118  0.09874985     0.08900
H1085       H  0.90728997  0.20716474  0.06571557     0.08900
H1086       H  0.85418131  0.03652715  0.11349813     0.08900
H1087       H  0.86817150  0.02711048  0.08028429     0.08900
H1088       H  0.82324425  0.04521295  0.08701716     0.05700
C1089       C  0.89473649  0.89218175  0.17422865    -0.20100
C1090       C  0.89339050  0.90288212  0.14795716    -0.06700
C1091       C  0.86329366  0.89106020  0.13248644     0.14200
C1092       C  0.83674536  0.86730701  0.14327531    -0.20200
C1093       C  0.83909598  0.85541456  0.16914154    -0.06700
C1094       C  0.86793495  0.86866537  0.18502047     0.14100
C1095       C  0.87160238  0.85667813  0.21284679    -0.23500
H1096       H  0.91726981  0.90186851  0.18638029     0.15400
H1097       H  0.81436182  0.85705841  0.13119663     0.15500
C1098       C  0.85965367  0.90187403  0.10440889    -0.23500
H1099       H  0.89643303  0.86899788  0.22225152     0.05700
H1100       H  0.87416713  0.82607357  0.21384788     0.08900
H1101       H  0.84685422  0.86562203  0.22395774     0.08900
H1102       H  0.88477161  0.89324721  0.09358338     0.08900
H1103       H  0.85591189  0.93227008  0.10279620     0.08900
H1104       H  0.83530517  0.88851999  0.09508266     0.05700
C1105       C  0.11267240  0.89879165  0.17068449    -0.20100
C1106       C  0.10630632  0.90137887  0.14383275    -0.06700
C1107       C  0.12763186  0.87976899  0.12668460     0.14200
C1108       C  0.15370396  0.85498930  0.13692318    -0.20200
C1109       C  0.15931227  0.85158573  0.16383914    -0.06700
C1110       C  0.13908176  0.87438145  0.18091710     0.14100
C1111       C  0.14392777  0.87199169  0.20986502    -0.23500
H1112       H  0.09644083  0.91573139  0.18380693     0.15400
H1113       H  0.16954554  0.83770599  0.12378611     0.15500
C1114       C  0.12189731  0.88144095  0.09779036    -0.23500
H1115       H  0.12467386  0.89080977  0.22027385     0.05700
H1116       H  0.17260886  0.88003229  0.21524252     0.08900
H1117       H  0.13835915  0.84329584  0.21648835     0.08900
H1118       H  0.12854571  0.90960493  0.09060317     0.08900
H1119       H  0.09265774  0.87462993  0.09302914     0.08900
H1120       H  0.14000484  0.86151276  0.08738138     0.05700
C1121       C  0.11459506  0.15631373  0.08567789    -0.20100
C1122       C  0.15111868  0.14486933  0.08051611    -0.06700
C1123       C  0.16075511  0.10739120  0.08531191     0.14200
C1124       C  0.13417926  0.08307224  0.09562809    -0.20200
C1125       C  0.09808762  0.09477777  0.10169969    -0.06700
C1126       C  0.08804832  0.13187175  0.09622265     0.14100
C1127       C  0.04915569  0.14561507  0.10066063    -0.23500
H1128       H  0.10698799  0.18487186  0.08206438     0.15400
H1129       H  0.14177826  0.05446546  0.09912426     0.15500
C1130       C  0.19869809  0.09226696  0.07903850    -0.23500
H1131       H  0.04574954  0.17477265  0.09430954     0.05700
H1132       H  0.04234045  0.14432607  0.12158330     0.08900
H1133       H  0.02922359  0.12834781  0.08952443     0.08900
H1134       H  0.21984978  0.10461765  0.09204735     0.08900
H1135       H  0.20569921  0.09829265  0.05853284     0.08900
H1136       H  0.20003839  0.06177990  0.08171118     0.05700
Zn1137     Zn  0.95395926  0.98947632  0.60344951     1.49700
Zn1138     Zn  0.99800962  0.04728277  0.64110518     1.49400
Zn1139     Zn  0.99946092  0.95804677  0.64853544     1.49100
Zn1140     Zn  0.04365572  0.99146195  0.60350200     1.49500
O1141       O  0.99872602  0.99778904  0.62399653    -1.84000
O1142       O  0.92407697  0.03572772  0.60263371    -0.74600
O1143       O  0.99776537  0.04019962  0.68135184    -0.74400
O1144       O  0.95550240  0.92588508  0.64873311    -0.73900
O1145       O  0.95175896  0.07574430  0.62903415    -0.74600
O1146       O  0.91972814  0.94952810  0.61820741    -0.74200
O1147       O  0.99768358  0.97881107  0.68250775    -0.74800
O1148       O  0.07976977  0.95270887  0.61802476    -0.74200
O1149       O  0.04228565  0.07901570  0.62818691    -0.74900
O1150       O  0.04522357  0.92861512  0.64904659    -0.74300
O1151       O  0.07087933  0.03943511  0.60204097    -0.74800
O1152       O  0.02967140  0.98256116  0.56643724    -0.74700
O1153       O  0.96796833  0.98152826  0.56615174    -0.74500
C1154       C  0.92579347  0.06746747  0.61315650     0.77300
C1155       C  0.99701364  0.00963908  0.69396325     0.77800
C1156       C  0.92480747  0.92704769  0.63688078     0.76700
C1157       C  0.07561030  0.93027586  0.63685623     0.77100
C1158       C  0.06794280  0.07160585  0.61187561     0.78300
C1159       C  0.99891302  0.98149751  0.55428955     0.77300
Zn1160     Zn  0.95613165  0.00178742  0.89499875     1.49700
Zn1161     Zn  0.04546560  0.00164300  0.89559937     1.49400
Zn1162     Zn  0.00100124  0.94620628  0.85669803     1.49100
Zn1163     Zn  0.00178935  0.03472767  0.85059736     1.49500
O1164       O  0.00103165  0.99482371  0.87459487    -1.84000
O1165       O  0.97015533  0.00786167  0.93225187    -0.74600
O1166       O  0.07191409  0.95364775  0.89819768    -0.74400
O1167       O  0.95642411  0.91546499  0.86970114    -0.73900
O1168       O  0.03148617  0.01060292  0.93219294    -0.74600
O1169       O  0.92798073  0.95467542  0.89621058    -0.74200
O1170       O  0.04614068  0.91595290  0.86909084    -0.74800
O1171       O  0.00063865  0.01595663  0.81616575    -0.74200
O1172       O  0.08168095  0.04066490  0.88188058    -0.74900
O1173       O  0.00072436  0.95455324  0.81642510    -0.74300
O1174       O  0.04696687  0.06384186  0.85053174    -0.74800
O1175       O  0.95952281  0.06807437  0.85243208    -0.74700
O1176       O  0.92204518  0.04309080  0.88154392    -0.74500
C1177       C  0.00095937  0.00871554  0.94431090     0.77300
C1178       C  0.06982502  0.92241163  0.88699930     0.77800
C1179       C  0.93115184  0.92258586  0.88635862     0.76700
C1180       C  0.00080048  0.98551320  0.80424333     0.77100
C1181       C  0.07700187  0.06292418  0.86304212     0.78300
C1182       C  0.92904948  0.06753117  0.86443285     0.77300
Zn1183     Zn  0.28970848  0.24966086  0.53796279     1.49700
Zn1184     Zn  0.25730172  0.20148100  0.58179403     1.49400
Zn1185     Zn  0.25846961  0.29026073  0.58470964     1.49100
Zn1186     Zn  0.20034673  0.24870927  0.54611795     1.49500
O1187       O  0.25020609  0.24735532  0.56263727    -1.84000
O1188       O  0.32299457  0.20666336  0.53800520    -0.74600
O1189       O  0.26359199  0.21296786  0.61946527    -0.74400
O1190       O  0.29696668  0.32729812  0.57163405    -0.73900
O1191       O  0.29880439  0.16892174  0.56718904    -0.74600
O1192       O  0.31857237  0.29583466  0.53825656    -0.74200
O1193       O  0.26589215  0.27432479  0.62112881    -0.74800
O1194       O  0.17127718  0.29388788  0.56022090    -0.74200
O1195       O  0.21020907  0.17255699  0.58190969    -0.74900
O1196       O  0.21194382  0.31794395  0.58763907    -0.74300
O1197       O  0.16928560  0.20363599  0.55834289    -0.74800
O1198       O  0.20744945  0.24990971  0.50569632    -0.74700
O1199       O  0.26825220  0.24562809  0.00376125    -0.74500
C1200       C  0.32227230  0.17563580  0.54931213     0.77300
C1201       C  0.26396071  0.24301970  0.63232912     0.77800
C1202       C  0.31798356  0.32498391  0.55189512     0.76700
C1203       C  0.17989369  0.31757783  0.57771860     0.77100
C1204       C  0.17760715  0.17633580  0.57300790     0.78300
C1205       C  0.23705487  0.24728187  0.99281215     0.77300
Zn1206     Zn  0.29073739  0.25219158  0.82816626     1.49700
Zn1207     Zn  0.23351497  0.29581973  0.79035731     1.49400
Zn1208     Zn  0.23529038  0.20669887  0.79065387     1.49100
Zn1209     Zn  0.20132462  0.25132957  0.83563268     1.49500
O1210       O  0.24136095  0.25156700  0.81120955    -1.84000
O1211       O  0.32063972  0.29742893  0.81469643    -0.74600
O1212       O  0.22619389  0.28138622  0.75338118    -0.74400
O1213       O  0.28173974  0.17765985  0.79058498    -0.73900
O1214       O  0.28036386  0.32491399  0.78860344    -0.74600
O1215       O  0.32105390  0.20646469  0.81660455    -0.74200
O1216       O  0.22985221  0.21997886  0.75344897    -0.74800
O1217       O  0.17132380  0.20589371  0.83539050    -0.74200
O1218       O  0.19284021  0.33010375  0.80393154    -0.74900
O1219       O  0.19587398  0.17164533  0.80428353    -0.74300
O1220       O  0.16943675  0.29575593  0.83512526    -0.74800
O1221       O  0.22169207  0.25042429  0.86999892    -0.74700
O1222       O  0.28311287  0.25151422  0.86833134    -0.74500
C1223       C  0.31262817  0.32281562  0.79828687     0.77300
C1224       C  0.22896243  0.25069870  0.74142348     0.77800
C1225       C  0.31342893  0.17993138  0.80101401     0.76700
C1226       C  0.17343717  0.17559416  0.82309772     0.77100
C1227       C  0.16989584  0.32577106  0.82242957     0.78300
C1228       C  0.25275958  0.25010400  0.88124042     0.77300
Zn1229     Zn  0.21358031  0.75126782  0.66245144     1.49700
Zn1230     Zn  0.30297099  0.75059040  0.67128590     1.49400
Zn1231     Zn  0.24547565  0.79521787  0.70854818     1.49100
Zn1232     Zn  0.24469695  0.70529574  0.70781217     1.49500
O1233       O  0.25290507  0.75049829  0.68760089    -1.84000
O1234       O  0.23443883  0.75103816  0.62845554    -0.74600
O1235       O  0.33366985  0.79540619  0.68573211    -0.74400
O1236       O  0.20454395  0.82978846  0.69516682    -0.73900
O1237       O  0.29591907  0.75162236  0.63054113    -0.74600
O1238       O  0.18371873  0.79673321  0.66206386    -0.74200
O1239       O  0.29218389  0.82466187  0.71000420    -0.74800
O1240       O  0.24073442  0.71935073  0.74541223    -0.74200
O1241       O  0.33195048  0.70403232  0.68355399    -0.74900
O1242       O  0.23981208  0.78096155  0.74573850    -0.74300
O1243       O  0.29065198  0.67428859  0.70766708    -0.74800
O1244       O  0.20170276  0.67257972  0.69439253    -0.74700
O1245       O  0.18082203  0.70764571  0.66267618    -0.74500
C1246       C  0.26558116  0.75163627  0.61742687     0.77300
C1247       C  0.32503416  0.82160176  0.70141365     0.77800
C1248       C  0.18339887  0.82602791  0.67552106     0.76700
C1249       C  0.24158799  0.75008033  0.75755132     0.77100
C1250       C  0.32323831  0.67711458  0.69849182     0.78300
C1251       C  0.17950164  0.67777675  0.67546298     0.77300
Zn1252     Zn  0.26391489  0.70966274  0.91611391     1.49700
Zn1253     Zn  0.20672033  0.75187995  0.95533476     1.49400
Zn1254     Zn  0.29519258  0.75251380  0.96222420     1.49100
Zn1255     Zn  0.26039322  0.79883518  0.91799485     1.49500
O1256       O  0.25546596  0.75314644  0.93770190    -1.84000
O1257       O  0.21765901  0.67999678  0.91497814    -0.74600
O1258       O  0.21414515  0.74989499  0.99517554    -0.74400
O1259       O  0.33013813  0.71100138  0.95963612    -0.73900
O1260       O  0.17825902  0.70676542  0.94231499    -0.74600
O1261       O  0.30470157  0.67520074  0.92984336    -0.74200
O1262       O  0.27596889  0.74860033  0.49484001    -0.74800
O1263       O  0.29776521  0.83487472  0.93374268    -0.74200
O1264       O  0.17407639  0.79574658  0.94388762    -0.74900
O1265       O  0.32173631  0.79946377  0.96447276    -0.74300
O1266       O  0.21152880  0.82439058  0.91640239    -0.74800
O1267       O  0.26995481  0.78717289  0.88061478    -0.74700
O1268       O  0.27043957  0.72560591  0.87901278    -0.74500
C1269       C  0.18605853  0.68173866  0.92567752     0.77300
C1270       C  0.24513283  0.74799538  0.50633920     0.77800
C1271       C  0.32861358  0.68038578  0.94769922     0.76700
C1272       C  0.31959428  0.83022702  0.95289197     0.77100
C1273       C  0.17990139  0.82078325  0.92691446     0.78300
C1274       C  0.27010615  0.75703702  0.86778030     0.77300
Zn1275     Zn  0.50104916  0.04768605  0.98807731     1.49700
Zn1276     Zn  0.50139500  0.95975630  0.97994436     1.49400
Zn1277     Zn  0.54525728  0.98922387  0.52479851     1.49100
Zn1278     Zn  0.45657812  0.98707665  0.52772127     1.49500
O1279       O  0.50279210  0.99852512  0.00505842    -1.84000
O1280       O  0.50057156  0.04137447  0.94794194    -0.74600
O1281       O  0.54513052  0.92767357  0.97985928    -0.74400
O1282       O  0.57379070  0.03642419  0.52366521    -0.73900
O1283       O  0.50006822  0.97999340  0.94559202    -0.74600
O1284       O  0.54536755  0.07888598  0.00033717    -0.74200
O1285       O  0.57851988  0.94804203  0.51105402    -0.74800
O1286       O  0.47200496  0.97970356  0.56465171    -0.74200
O1287       O  0.45604515  0.93065196  0.98051450    -0.74900
O1288       O  0.53340266  0.98424672  0.56252031    -0.74300
O1289       O  0.41902260  0.95006009  0.51373075    -0.74800
O1290       O  0.42886435  0.03378181  0.52954436    -0.74700
O1291       O  0.45499326  0.07566533  0.00056137    -0.74500
C1292       C  0.49971464  0.01125857  0.93480380     0.77300
C1293       C  0.57587797  0.92800270  0.99170405     0.77800
C1294       C  0.56892446  0.06834396  0.51392737     0.76700
C1295       C  0.50353535  0.98288447  0.57556997     0.77100
C1296       C  0.42721487  0.93061621  0.99439434     0.78300
C1297       C  0.42859135  0.06443926  0.51771546     0.77300
Zn1298     Zn  0.45491656  0.01149579  0.73503474     1.49700
Zn1299     Zn  0.50018423  0.95385561  0.77103484     1.49400
Zn1300     Zn  0.54516071  0.01092246  0.73373092     1.49100
Zn1301     Zn  0.50234290  0.04354431  0.77987618     1.49500
O1302       O  0.50058797  0.00392501  0.75484641    -1.84000
O1303       O  0.42464912  0.96476204  0.73440250    -0.74600
O1304       O  0.54542117  0.92378444  0.75793766    -0.74400
O1305       O  0.53000454  0.01511745  0.69662856    -0.73900
O1306       O  0.45487086  0.92347395  0.75808729    -0.74600
O1307       O  0.46828878  0.01665099  0.69749570    -0.74200
O1308       O  0.57506382  0.96463593  0.73338012    -0.74800
O1309       O  0.54631718  0.07599089  0.77787585    -0.74200
O1310       O  0.50031262  0.96088041  0.81137481    -0.74900
O1311       O  0.57931260  0.05333222  0.74551283    -0.74300
O1312       O  0.50442356  0.02233350  0.81397611    -0.74800
O1313       O  0.45802373  0.07556091  0.78038236    -0.74700
O1314       O  0.42234872  0.05416793  0.74893414    -0.74500
C1315       C  0.42787171  0.93204267  0.74316401     0.77300
C1316       C  0.57204459  0.93226563  0.74268183     0.77800
C1317       C  0.49876668  0.01467858  0.68514495     0.76700
C1318       C  0.57503811  0.07665718  0.76385543     0.77100
C1319       C  0.50285915  0.99092241  0.82462345     0.78300
C1320       C  0.42817495  0.07684508  0.76755203     0.77300
Zn1321     Zn  0.78450807  0.75092663  0.66283746     1.49700
Zn1322     Zn  0.75509094  0.70444216  0.70814909     1.49400
Zn1323     Zn  0.75436142  0.79426906  0.71076047     1.49100
Zn1324     Zn  0.69648250  0.75190857  0.67295480     1.49500
O1325       O  0.74670118  0.75039030  0.68885823    -1.84000
O1326       O  0.81970606  0.70881270  0.66347312    -0.74600
O1327       O  0.75543976  0.71697111  0.74629541    -0.74400
O1328       O  0.79729337  0.82760825  0.69821296    -0.73900
O1329       O  0.80010404  0.67319201  0.69522503    -0.74600
O1330       O  0.81250609  0.79733721  0.66236405    -0.74200
O1331       O  0.75635540  0.77839389  0.74822929    -0.74800
O1332       O  0.66721336  0.79715331  0.68619106    -0.74200
O1333       O  0.70952527  0.67288174  0.70595552    -0.74900
O1334       O  0.70850473  0.82564166  0.71101314    -0.74300
O1335       O  0.66703715  0.70683910  0.68565284    -0.74800
O1336       O  0.70084025  0.75159245  0.63259556    -0.74700
O1337       O  0.76209998  0.74784280  0.62900536    -0.74500
C1338       C  0.82238005  0.67913218  0.67640471     0.77300
C1339       C  0.75345406  0.74694632  0.75929112     0.77800
C1340       C  0.81573955  0.82515924  0.67714413     0.76700
C1341       C  0.67588611  0.82330539  0.70177016     0.77100
C1342       C  0.67641166  0.67788403  0.69824159     0.78300
C1343       C  0.73026753  0.74880893  0.61885699     0.77300
Zn1344     Zn  0.75234672  0.70295436  0.95815401     1.49700
Zn1345     Zn  0.78061850  0.74783831  0.91043574     1.49400
Zn1346     Zn  0.69490980  0.74992545  0.92379290     1.49100
Zn1347     Zn  0.75885635  0.79118980  0.95946817     1.49500
O1348       O  0.74572357  0.74820245  0.93813857    -1.84000
O1349       O  0.79232337  0.66930977  0.94371715    -0.74600
O1350       O  0.75649626  0.74929144  0.87708428    -0.74400
O1351       O  0.66374476  0.70604457  0.93715334    -0.73900
O1352       O  0.80783669  0.70179577  0.90907460    -0.74600
O1353       O  0.70631278  0.67316229  0.95781109    -0.74200
O1354       O  0.69564140  0.74931252  0.88346735    -0.74800
O1355       O  0.71596028  0.82554488  0.95947836    -0.74200
O1356       O  0.81656598  0.78870227  0.91062890    -0.74900
O1357       O  0.67097330  0.79667448  0.93769051    -0.74300
O1358       O  0.80535055  0.81981268  0.94654889    -0.74800
O1359       O  0.75981304  0.77633993  0.99728315    -0.74700
O1360       O  0.75697535  0.71488228  0.99593888    -0.74500
C1361       C  0.81005348  0.67275473  0.92251503     0.77300
C1362       C  0.72379926  0.74888004  0.86843482     0.77800
C1363       C  0.67324710  0.67747818  0.95011226     0.76700
C1364       C  0.68261268  0.82353974  0.95162158     0.77100
C1365       C  0.82395228  0.81543144  0.92567516     0.78300
C1366       C  0.75787774  0.74849060  0.50899017     0.77300
Zn1367     Zn  0.78865747  0.25124615  0.58674798     1.49700
Zn1368     Zn  0.75685959  0.29239895  0.53951871     1.49400
Zn1369     Zn  0.75857345  0.20332715  0.54108242     1.49100
Zn1370     Zn  0.70011057  0.24710772  0.57747063     1.49500
O1371       O  0.75006860  0.24840709  0.56111845    -1.84000
O1372       O  0.81675335  0.29793479  0.58662782    -0.74600
O1373       O  0.76262803  0.27783737  0.50230953    -0.74400
O1374       O  0.80107491  0.17151148  0.55607750    -0.73900
O1375       O  0.79658210  0.32871078  0.55240247    -0.74600
O1376       O  0.82317608  0.20900506  0.58642685    -0.74200
O1377       O  0.76399718  0.21645306  0.50319963    -0.74800
O1378       O  0.67038028  0.20167965  0.56434993    -0.74200
O1379       O  0.70982117  0.32021961  0.53863171    -0.74900
O1380       O  0.71222562  0.17284419  0.54037078    -0.74300
O1381       O  0.67023932  0.29212214  0.56508742    -0.74800
O1382       O  0.70570306  0.24713208  0.61767813    -0.74700
O1383       O  0.76713162  0.25034717  0.62094453    -0.74500
C1384       C  0.81675109  0.32663886  0.57263966     0.77300
C1385       C  0.76570295  0.24323394  0.98893314     0.77800
C1386       C  0.82412903  0.17854407  0.57427934     0.76700
C1387       C  0.67945591  0.17510426  0.54920305     0.77100
C1388       C  0.67788727  0.31742523  0.54864573     0.78300
C1389       C  0.73543766  0.24890363  0.63120015     0.77300
Zn1390     Zn  0.79718420  0.25085098  0.83705475     1.49700
Zn1391     Zn  0.76916747  0.29613814  0.79014676     1.49400
Zn1392     Zn  0.76857422  0.20678677  0.78910157     1.49100
Zn1393     Zn  0.70989167  0.25109244  0.82489383     1.49500
O1394       O  0.76042596  0.25120473  0.81019671    -1.84000
O1395       O  0.82820555  0.29591678  0.83878149    -0.74600
O1396       O  0.77259421  0.28271007  0.75241629    -0.74400
O1397       O  0.81014877  0.17347883  0.80280915    -0.73900
O1398       O  0.81171890  0.32814333  0.80432534    -0.74600
O1399       O  0.82898178  0.20683455  0.83635511    -0.74200
O1400       O  0.77225817  0.22131615  0.75156971    -0.74800
O1401       O  0.68110595  0.20640785  0.81109704    -0.74200
O1402       O  0.72373710  0.32776452  0.78999461    -0.74900
O1403       O  0.72305087  0.17556908  0.78842489    -0.74300
O1404       O  0.68155560  0.29675559  0.81235062    -0.74800
O1405       O  0.71220838  0.24908536  0.86483654    -0.74700
O1406       O  0.77332611  0.24760353  0.87045015    -0.74500
C1407       C  0.83117275  0.32463540  0.82485549     0.77300
C1408       C  0.77043456  0.25236956  0.73990897     0.77800
C1409       C  0.83060236  0.17762645  0.82278386     0.76700
C1410       C  0.69018804  0.17898310  0.79677911     0.77100
C1411       C  0.69081956  0.32437709  0.79831807     0.78300
C1412       C  0.74079318  0.24713517  0.87940891     0.77300
Zn1413     Zn  0.54381141  0.48870724  0.97892480     1.49700
Zn1414     Zn  0.50068690  0.55054921  0.51815144     1.49400
Zn1415     Zn  0.45465642  0.48760979  0.97802931     1.49100
Zn1416     Zn  0.49728689  0.46402751  0.52969402     1.49500
O1417       O  0.49890202  0.49559393  0.99948149    -1.84000
O1418       O  0.57363296  0.53519568  0.97975309    -0.74600
O1419       O  0.45761819  0.58048366  0.50390008    -0.74400
O1420       O  0.46892335  0.48348423  0.94051084    -0.73900
O1421       O  0.54583371  0.57830435  0.50548956    -0.74600
O1422       O  0.53039121  0.48646412  0.94115787    -0.74200
O1423       O  0.42392202  0.53339198  0.97722407    -0.74800
O1424       O  0.45013603  0.43659809  0.53072810    -0.74200
O1425       O  0.49976293  0.54871624  0.55811026    -0.74900
O1426       O  0.42167214  0.44556914  0.99118276    -0.74300
O1427       O  0.49965159  0.48760459  0.56303196    -0.74800
O1428       O  0.53871884  0.42890854  0.52970285    -0.74700
O1429       O  0.57604702  0.44481449  0.99088486    -0.74500
C1430       C  0.56849576  0.56797769  0.98809733     0.77300
C1431       C  0.42614688  0.56539199  0.98736015     0.77800
C1432       C  0.49979277  0.48686181  0.92883995     0.76700
C1433       C  0.42226383  0.43454406  0.51588470     0.77100
C1434       C  0.49955410  0.51987963  0.57238854     0.78300
C1435       C  0.56842692  0.42569625  0.51691744     0.77300
Zn1436     Zn  0.45627394  0.48782762  0.72919309     1.49700
Zn1437     Zn  0.54688771  0.48935056  0.73030034     1.49400
Zn1438     Zn  0.49951410  0.54649939  0.76535904     1.49100
Zn1439     Zn  0.50127348  0.45711938  0.77545530     1.49500
O1440       O  0.50083118  0.49600448  0.75002132    -1.84000
O1441       O  0.47261446  0.48628458  0.69217519    -0.74600
O1442       O  0.57555228  0.53656034  0.72935202    -0.74400
O1443       O  0.45333312  0.57509546  0.75270018    -0.73900
O1444       O  0.53420874  0.48440948  0.69276306    -0.74600
O1445       O  0.42397492  0.53321483  0.72882049    -0.74200
O1446       O  0.54306746  0.57757623  0.75160981    -0.74800
O1447       O  0.50311624  0.47998336  0.80924500    -0.74200
O1448       O  0.58141949  0.44831027  0.74400542    -0.74900
O1449       O  0.50194436  0.54146334  0.80542061    -0.74300
O1450       O  0.54589293  0.42515554  0.77482249    -0.74800
O1451       O  0.45677385  0.42475358  0.77519551    -0.74700
O1452       O  0.42408273  0.44360696  0.74142376    -0.74500
C1453       C  0.50376095  0.48773035  0.68054756     0.77300
C1454       C  0.57052234  0.56963299  0.73704534     0.77800
C1455       C  0.42655295  0.56594506  0.73774689     0.76700
C1456       C  0.50391307  0.51199619  0.81915653     0.77100
C1457       C  0.57597854  0.42507677  0.76222346     0.78300
C1458       C  0.42836227  0.42210851  0.76087064     0.77300
Zn1459     Zn  0.00224674  0.46087525  0.59801491     1.49700
Zn1460     Zn  0.04605902  0.49043991  0.64455926     1.49400
Zn1461     Zn  0.00138616  0.54840121  0.60817496     1.49100
Zn1462     Zn  0.95629879  0.49114872  0.64424280     1.49500
O1463       O  0.00144190  0.49874058  0.62397343    -1.84000
O1464       O  0.04088786  0.42312799  0.60205762    -0.74600
O1465       O  0.07876900  0.53495408  0.64353449    -0.74400
O1466       O  0.00329240  0.54282245  0.56803701    -0.73900
O1467       O  0.07620472  0.44469781  0.63362231    -0.74600
O1468       O  0.01129547  0.48199718  0.56430080    -0.74200
O1469       O  0.04684735  0.57670266  0.62148296    -0.74800
O1470       O  0.92725965  0.53820936  0.64608517    -0.74200
O1471       O  0.03137844  0.48969033  0.68181790    -0.74900
O1472       O  0.95616280  0.57875913  0.62113985    -0.74300
O1473       O  0.96990832  0.48457265  0.68187149    -0.74800
O1474       O  0.92160366  0.45165353  0.62846564    -0.74700
O1475       O  0.95469587  0.43546731  0.59433392    -0.74500
C1476       C  0.06959483  0.42074232  0.61597422     0.77300
C1477       C  0.07472515  0.56795424  0.63545404     0.77800
C1478       C  0.00891102  0.51376635  0.55426700     0.76700
C1479       C  0.93010314  0.57076529  0.63699177     0.77100
C1480       C  0.00059980  0.48864532  0.69381706     0.78300
C1481       C  0.92503840  0.43365519  0.60723874     0.77300
Zn1482     Zn  0.95690798  0.51696484  0.85199371     1.49700
Zn1483     Zn  0.00203053  0.46468030  0.89096388     1.49400
Zn1484     Zn  0.04577409  0.52055580  0.85213371     1.49100
Zn1485     Zn  0.99996608  0.55270064  0.89713198     1.49500
O1486       O  0.00138187  0.51274206  0.87288016    -1.84000
O1487       O  0.93068859  0.46900230  0.85119211    -0.74600
O1488       O  0.04601924  0.43514779  0.87762923    -0.74400
O1489       O  0.03169695  0.52797679  0.81459504    -0.73900
O1490       O  0.95696064  0.43316829  0.88056109    -0.74600
O1491       O  0.97009070  0.52483768  0.81495324    -0.74200
O1492       O  0.07449239  0.47342446  0.85073190    -0.74800
O1493       O  0.04116449  0.58800372  0.89497572    -0.74200
O1494       O  0.00436614  0.47248461  0.93069322    -0.74900
O1495       O  0.07935965  0.56121297  0.86710909    -0.74300
O1496       O  0.00361946  0.53377368  0.93189901    -0.74800
O1497       O  0.95265998  0.57840415  0.89794657    -0.74700
O1498       O  0.91957955  0.55339100  0.86632332    -0.74500
C1499       C  0.93244247  0.43836366  0.86309641     0.77300
C1500       C  0.07131994  0.44158308  0.86098399     0.77800
C1501       C  0.00071546  0.52624686  0.80276600     0.76700
C1502       C  0.07239597  0.58620626  0.88394647     0.77100
C1503       C  0.00461136  0.50296817  0.94337269     0.78300
C1504       C  0.92244594  0.57476514  0.88584919     0.77300
C1505       C  0.02669518  0.52268984  0.73132075    -0.20100
C1506       C  0.00055584  0.49689859  0.72195287    -0.06700
C1507       C  0.97358619  0.48274894  0.73906988     0.14200
C1508       C  0.97365869  0.49450574  0.76495304    -0.20200
C1509       C  0.00002163  0.51990372  0.77442012    -0.06700
C1510       C  0.02684931  0.53434106  0.75729386     0.14100
C1511       C  0.05496641  0.56267797  0.76596441    -0.23500
H1512       H  0.04685376  0.53441261  0.71807165     0.15400
H1513       H  0.95352863  0.48268192  0.77817249     0.15500
C1514       C  0.94549055  0.45426879  0.73058703    -0.23500
H1515       H  0.07188459  0.57294885  0.74949948     0.05700
H1516       H  0.07429523  0.55036753  0.78025903     0.08900
H1517       H  0.04058805  0.58679512  0.77477418     0.08900
H1518       H  0.95987118  0.43009922  0.72187216     0.08900
H1519       H  0.92606032  0.46644873  0.71631412     0.08900
H1520       H  0.92865613  0.44409438  0.74710119     0.05700
C1521       C  0.03643636  0.49076189  0.51347205    -0.20100
C1522       C  0.01081744  0.51453664  0.52572271    -0.06700
C1523       C  0.98296669  0.53155762  0.51079843     0.14200
C1524       C  0.98823183  0.53558958  0.98392204    -0.20200
C1525       C  0.00527118  0.50472938  0.97203218    -0.06700
C1526       C  0.02460994  0.47920094  0.98753075     0.14100
C1527       C  0.04396934  0.44604338  0.97608510    -0.23500
H1528       H  0.05752980  0.47715474  0.52506322     0.15400
H1529       H  0.97350048  0.55537115  0.97212377     0.15500
C1530       C  0.95401578  0.55611216  0.52293740    -0.23500
H1531       H  0.05867823  0.42967782  0.99111193     0.05700
H1532       H  0.06471023  0.45519155  0.96158917     0.08900
H1533       H  0.02339680  0.42748825  0.96669785     0.08900
H1534       H  0.96750974  0.58047422  0.53205807     0.08900
H1535       H  0.93837668  0.54042212  0.53783132     0.08900
H1536       H  0.93384351  0.56643479  0.50838540     0.05700
C1537       C  0.53211749  0.48461338  0.88644261    -0.20100
C1538       C  0.50046046  0.49461846  0.90058011    -0.06700
C1539       C  0.47247911  0.51592041  0.88813359     0.14200
C1540       C  0.47601292  0.52459933  0.86173320    -0.20200
C1541       C  0.50671525  0.51280219  0.84751373    -0.06700
C1542       C  0.53550593  0.49324020  0.86009765     0.14100
C1543       C  0.56987888  0.48125219  0.84569492    -0.23500
H1544       H  0.55415066  0.46949266  0.89596039     0.15400
H1545       H  0.45385756  0.53905477  0.85183472     0.15500
C1546       C  0.43922388  0.53055653  0.90247719    -0.23500
H1547       H  0.59036154  0.46799968  0.85879765     0.05700
H1548       H  0.58328171  0.50573518  0.83671329     0.08900
H1549       H  0.56282304  0.46084159  0.83037309     0.08900
H1550       H  0.44862391  0.54775109  0.91906512     0.08900
H1551       H  0.42182800  0.50729371  0.90945673     0.08900
H1552       H  0.42149843  0.54818245  0.88995384     0.05700
C1553       C  0.53131083  0.52605797  0.61420492    -0.20100
C1554       C  0.49808574  0.52144082  0.60065104    -0.06700
C1555       C  0.46706966  0.50610660  0.61330503     0.14200
C1556       C  0.47035551  0.49429051  0.63895248    -0.20200
C1557       C  0.50395432  0.49739570  0.65256010    -0.06700
C1558       C  0.53474425  0.51453960  0.64009674     0.14100
C1559       C  0.57128816  0.52113062  0.65358796    -0.23500
H1560       H  0.55525786  0.53681623  0.60401383     0.15400
H1561       H  0.44639163  0.48219982  0.64832609     0.15500
C1562       C  0.43056680  0.50121824  0.59940104    -0.23500
H1563       H  0.59152922  0.53539959  0.64082674     0.05700
H1564       H  0.58379226  0.49431284  0.65936771     0.08900
H1565       H  0.56710952  0.53896530  0.67088761     0.08900
H1566       H  0.43375419  0.48197446  0.58277682     0.08900
H1567       H  0.42076721  0.52843278  0.59220491     0.08900
H1568       H  0.40889451  0.48964791  0.61232870     0.05700
C1569       C  0.87770429  0.41819779  0.83725349    -0.20100
C1570       C  0.90583311  0.40864895  0.85505394    -0.06700
C1571       C  0.90893909  0.37114596  0.86273912     0.14200
C1572       C  0.88466973  0.34471231  0.85205936    -0.20200
C1573       C  0.85717895  0.35422104  0.83380044    -0.06700
C1574       C  0.85358756  0.39178040  0.82652377     0.14100
C1575       C  0.82410342  0.40475121  0.80789627    -0.23500
H1576       H  0.87456640  0.44678438  0.83133609     0.15400
H1577       H  0.88742734  0.31609561  0.85802601     0.15500
C1578       C  0.93779914  0.35826115  0.88184308    -0.23500
H1579       H  0.82477107  0.43524298  0.80517479     0.05700
H1580       H  0.79624614  0.39738827  0.81539580     0.08900
H1581       H  0.82846467  0.39187403  0.78860162     0.08900
H1582       H  0.93391925  0.37264896  0.90068092     0.08900
H1583       H  0.96594454  0.36389983  0.87416032     0.08900
H1584       H  0.93587193  0.32803803  0.88554846     0.05700
C1585       C  0.62516678  0.33946435  0.78840028    -0.20100
C1586       C  0.66211316  0.35155689  0.78978089    -0.06700
C1587       C  0.67070612  0.38792222  0.78110053     0.14200
C1588       C  0.64223256  0.41071661  0.77141092    -0.20200
C1589       C  0.60535184  0.39850474  0.77018756    -0.06700
C1590       C  0.59682289  0.36221883  0.77875095     0.14100
C1591       C  0.55807202  0.34663130  0.77706651    -0.23500
H1592       H  0.61837513  0.31151823  0.79447605     0.15400
H1593       H  0.64869874  0.43872390  0.76526616     0.15500
C1594       C  0.70945497  0.40353915  0.78250144    -0.23500
H1595       H  0.55721872  0.31686405  0.78236824     0.05700
H1596       H  0.54747588  0.34924216  0.75695172     0.08900
H1597       H  0.53941272  0.36143327  0.79062117     0.08900
H1598       H  0.72799111  0.38846376  0.76896952     0.08900
H1599       H  0.72020987  0.40135520  0.80261033     0.08900
H1600       H  0.71025469  0.43320434  0.77691135     0.05700
C1601       C  0.75156319  0.21160762  0.91890080    -0.20100
C1602       C  0.73832432  0.24430345  0.90762358    -0.06700
C1603       C  0.73442251  0.27631656  0.92288460     0.14200
C1604       C  0.74412418  0.27500723  0.94915337    -0.20200
C1605       C  0.75830263  0.24250860  0.96058331    -0.06700
C1606       C  0.76153787  0.21010308  0.94516067     0.01300
C1607       C  0.77681914  0.17425929  0.95563123    -0.23500
H1608       H  0.75587928  0.18754494  0.90665627     0.15400
H1609       H  0.74069055  0.29979642  0.96077065     0.15500
C1610       C  0.72169135  0.31230020  0.91114150    -0.23500
H1611       H  0.77994671  0.15302632  0.94018181     0.05700
H1612       H  0.75774554  0.16261973  0.97035972     0.08900
H1613       H  0.80458271  0.17908156  0.96429493     0.08900
H1614       H  0.69372263  0.30864810  0.90256883     0.08900
H1615       H  0.74131378  0.32108227  0.89575897     0.08900
H1616       H  0.72019744  0.33480041  0.92580331     0.05700
C1617       C  0.75121442  0.21887676  0.69979180    -0.20100
C1618       C  0.76115332  0.25273983  0.71164208    -0.06700
C1619       C  0.75751061  0.28587668  0.69695041     0.14200
C1620       C  0.74492614  0.28386846  0.67121397    -0.20200
C1621       C  0.73553014  0.25005196  0.65962028    -0.06700
C1622       C  0.73879206  0.21719067  0.67402712     0.14100
C1623       C  0.73043640  0.18016938  0.66184648    -0.23500
H1624       H  0.75316950  0.19337729  0.71063140     0.15400
H1625       H  0.74404154  0.30872755  0.65956112     0.15500
C1626       C  0.76738937  0.32355199  0.70760842    -0.23500
H1627       H  0.73417072  0.15709767  0.67580134     0.05700
H1628       H  0.74925808  0.17526705  0.64518074     0.08900
H1629       H  0.70130679  0.17971971  0.65493243     0.08900
H1630       H  0.79654278  0.32362213  0.71449206     0.08900
H1631       H  0.74836518  0.33102896  0.72367899     0.08900
H1632       H  0.76480039  0.34556299  0.69271960     0.05700
C1633       C  0.86478455  0.37362136  0.56279003    -0.20100
C1634       C  0.84067912  0.35776306  0.58078147    -0.06700
C1635       C  0.84161034  0.36996951  0.60689340     0.14200
C1636       C  0.86844462  0.39582361  0.61468512    -0.20200
C1637       C  0.89469827  0.40961011  0.59718072    -0.06700
C1638       C  0.89194128  0.39924287  0.57053749     0.14100
C1639       C  0.91715649  0.41479505  0.54989240    -0.23500
H1640       H  0.86345334  0.36461335  0.54276212     0.15400
H1641       H  0.86969053  0.40427383  0.63482033     0.15500
C1642       C  0.81404540  0.35621583  0.62665243    -0.23500
H1643       H  0.90862777  0.40586819  0.53015507     0.05700
H1644       H  0.94595655  0.40485092  0.55281643     0.08900
H1645       H  0.91637301  0.44551617  0.55036082     0.08900
H1646       H  0.81808063  0.32627109  0.63032015     0.08900
H1647       H  0.78541070  0.36111645  0.61955975     0.08900
H1648       H  0.81713693  0.37074017  0.64551640     0.05700
C1649       C  0.62613823  0.36019872  0.55879802    -0.20100
C1650       C  0.64917922  0.34404809  0.54020442    -0.06700
C1651       C  0.64501387  0.35412068  0.51378864     0.14200
C1652       C  0.61842925  0.38064875  0.50683924    -0.20200
C1653       C  0.59566777  0.39733916  0.52544196    -0.06700
C1654       C  0.59966387  0.38691302  0.55192363     0.14100
C1655       C  0.57736806  0.40461649  0.57337457    -0.23500
H1656       H  0.62954019  0.35247721  0.57900217     0.15400
H1657       H  0.64336489  0.43106577  0.00802111     0.15500
C1658       C  0.70361246  0.39476221  0.02437489    -0.23500
H1659       H  0.58640534  0.39501385  0.59282701     0.05700
H1660       H  0.54765852  0.39726762  0.57135280     0.08900
H1661       H  0.58081478  0.43515762  0.57283786     0.08900
H1662       H  0.72085412  0.37821554  0.01086929     0.08900
H1663       H  0.71539151  0.39354982  0.04423180     0.08900
H1664       H  0.70507775  0.42399654  0.01779783     0.05700
C1665       C  0.85546248  0.62334193  0.93075536    -0.20100
C1666       C  0.83431957  0.64318567  0.91288575    -0.06700
C1667       C  0.83860936  0.63624673  0.88593535     0.14200
C1668       C  0.86659975  0.61225996  0.87762013    -0.20200
C1669       C  0.89027019  0.59544561  0.89547239    -0.06700
C1670       C  0.88352924  0.59951793  0.92242086     0.14100
C1671       C  0.90564553  0.57891559  0.94258806    -0.23500
H1672       H  0.85131378  0.62792517  0.95129843     0.15400
H1673       H  0.87109876  0.60794976  0.85708487     0.15500
C1674       C  0.81378201  0.65361909  0.86574913    -0.23500
H1675       H  0.89417520  0.58294072  0.96236437     0.05700
H1676       H  0.93455458  0.58918855  0.94291480     0.08900
H1677       H  0.90526459  0.54876670  0.93830226     0.08900
H1678       H  0.81890086  0.68383249  0.86444476     0.08900
H1679       H  0.78429872  0.64841353  0.87067341     0.08900
H1680       H  0.81887937  0.64189041  0.84616432     0.05700
C1681       C  0.61085098  0.66078277  0.96713500    -0.20100
C1682       C  0.64555170  0.64919097  0.95791484    -0.06700
C1683       C  0.65453848  0.61106028  0.95873415     0.14200
C1684       C  0.62922473  0.58592470  0.96939910    -0.20200
C1685       C  0.59475705  0.59735881  0.97927849    -0.06700
C1686       C  0.58531661  0.63548898  0.97779524     0.14100
C1687       C  0.55085462  0.64910222  0.48288047    -0.23500
H1688       H  0.60404700  0.68996642  0.96658269     0.15400
H1689       H  0.63657666  0.55688083  0.96993827     0.15500
C1690       C  0.69032702  0.59624613  0.94769391    -0.23500
H1691       H  0.54724123  0.67831361  0.47672562     0.05700
H1692       H  0.54535329  0.64790783  0.50401883     0.08900
H1693       H  0.53008985  0.63214852  0.47228076     0.08900
H1694       H  0.71425394  0.60589316  0.95937243     0.08900
H1695       H  0.69349694  0.60551696  0.92731627     0.08900
H1696       H  0.69101693  0.56549577  0.94776726     0.05700
C1697       C  0.72932234  0.77816105  0.79902185    -0.20100
C1698       C  0.74366928  0.74571764  0.78745072    -0.06700
C1699       C  0.74495296  0.71280976  0.80249828     0.14200
C1700       C  0.73363929  0.71392818  0.82852246    -0.20200
C1701       C  0.72089912  0.74666715  0.84009111    -0.06700
C1702       C  0.71819248  0.77900543  0.82510405     0.14100
C1703       C  0.70506122  0.81477082  0.83701162    -0.23500
H1704       H  0.72705434  0.80330027  0.78771778     0.15400
H1705       H  0.73681708  0.68947765  0.84048965     0.15500
C1706       C  0.75943194  0.67661775  0.79196329    -0.23500
H1707       H  0.70440445  0.83758380  0.82263511     0.05700
H1708       H  0.72388264  0.82308694  0.85302977     0.08900
H1709       H  0.67663029  0.81104385  0.84480210     0.08900
H1710       H  0.78796081  0.68042733  0.78440284     0.08900
H1711       H  0.74090054  0.66623034  0.77638237     0.08900
H1712       H  0.76056410  0.65483128  0.80710490     0.05700
C1713       C  0.75133022  0.71758646  0.57945698    -0.20100
C1714       C  0.72996429  0.74611043  0.59035487    -0.06700
C1715       C  0.71801654  0.77547305  0.57451905     0.14200
C1716       C  0.72814478  0.77576024  0.54818313    -0.20200
C1717       C  0.75035684  0.74755601  0.53733408    -0.06700
C1718       C  0.76179472  0.71785525  0.55332120     0.14100
C1719       C  0.78645651  0.68715432  0.54353649    -0.23500
H1720       H  0.76137172  0.69562957  0.59193569     0.15400
H1721       H  0.71861607  0.79824314  0.53600217     0.15500
C1722       C  0.69612432  0.80722408  0.58561524    -0.23500
H1723       H  0.79530222  0.66837637  0.55939755     0.05700
H1724       H  0.81182980  0.69906574  0.53468993     0.08900
H1725       H  0.77145544  0.66999608  0.52910741     0.08900
H1726       H  0.71242019  0.82118017  0.60107552     0.08900
H1727       H  0.66979200  0.79672372  0.59392909     0.08900
H1728       H  0.68925634  0.82812917  0.57060789     0.05700
C1729       C  0.88379832  0.59222005  0.66985964    -0.20100
C1730       C  0.90317097  0.59945803  0.64662390    -0.06700
C1731       C  0.89645946  0.63352281  0.63398315     0.14200
C1732       C  0.87083509  0.65869877  0.64467747    -0.20200
C1733       C  0.85099958  0.65130042  0.66774282    -0.06700
C1734       C  0.85797718  0.61730639  0.68049090     0.14100
C1735       C  0.83855286  0.60687154  0.70526646    -0.23500
H1736       H  0.88892082  0.56649643  0.68002961     0.15400
H1737       H  0.86592793  0.68439814  0.63444390     0.15500
C1738       C  0.91526219  0.64345106  0.60886027    -0.23500
H1739       H  0.84820520  0.57975630  0.71281807     0.05700
H1740       H  0.80828149  0.60453894  0.70181724     0.08900
H1741       H  0.84414192  0.62803002  0.72039850     0.08900
H1742       H  0.90945656  0.62186116  0.59405068     0.08900
H1743       H  0.94558119  0.64602780  0.61191098     0.08900
H1744       H  0.90527885  0.67032012  0.60108801     0.05700
C1745       C  0.61579117  0.66254976  0.71846456    -0.20100
C1746       C  0.64803930  0.65026164  0.70591744    -0.06700
C1747       C  0.65433357  0.61187326  0.70346624     0.14200
C1748       C  0.62883947  0.58684938  0.71414178    -0.20200
C1749       C  0.59687579  0.59877115  0.72749483    -0.06700
C1750       C  0.59016656  0.63748708  0.72933049     0.14100
C1751       C  0.55620657  0.65295638  0.74242226    -0.23500
H1752       H  0.61117919  0.69209433  0.72045320     0.15400
H1753       H  0.63422763  0.55749169  0.71199628     0.15500
C1754       C  0.68747488  0.59701240  0.68900582    -0.23500
H1755       H  0.55552143  0.68368765  0.74168145     0.05700
H1756       H  0.55593917  0.64479558  0.76314218     0.08900
H1757       H  0.53085414  0.64259707  0.73258868     0.08900
H1758       H  0.71344052  0.60447761  0.69925343     0.08900
H1759       H  0.68799765  0.60860333  0.66909246     0.08900
H1760       H  0.68667944  0.56636486  0.68735397     0.05700
C1761       C  0.58574372  0.86959560  0.72470474    -0.20100
C1762       C  0.59906224  0.90380926  0.73378111    -0.06700
C1763       C  0.63730420  0.91176619  0.73130138     0.14200
C1764       C  0.66103242  0.88540646  0.72008191    -0.20200
C1765       C  0.64790040  0.85116751  0.71074886    -0.06700
C1766       C  0.60946029  0.84335370  0.71302563     0.14100
C1767       C  0.59312797  0.80729797  0.70371715    -0.23500
H1768       H  0.55635099  0.86378013  0.72611496     0.15400
H1769       H  0.69031652  0.89169543  0.71863181     0.15500
C1770       C  0.65364129  0.94763557  0.74109511    -0.23500
H1771       H  0.56291251  0.80565276  0.70760839     0.05700
H1772       H  0.60662872  0.78377300  0.71378551     0.08900
H1773       H  0.59708110  0.80458202  0.68245908     0.08900
H1774       H  0.64648093  0.95152906  0.76183451     0.08900
H1775       H  0.64298577  0.97130675  0.72963657     0.08900
H1776       H  0.68431152  0.94796314  0.73941267     0.05700
C1777       C  0.64140590  0.09218031  0.77063024    -0.20100
C1778       C  0.60440083  0.10394499  0.77033212    -0.06700
C1779       C  0.59588572  0.14036981  0.77862970     0.14200
C1780       C  0.62441113  0.16361060  0.78747963    -0.20200
C1781       C  0.66146509  0.15179375  0.78828014    -0.06700
C1782       C  0.67005936  0.11542581  0.77950719     0.14100
C1783       C  0.70898486  0.10019465  0.78003626    -0.23500
H1784       H  0.64781648  0.06411616  0.76456345     0.15400
H1785       H  0.61764192  0.19158179  0.79353105     0.15500
C1786       C  0.55692566  0.15547833  0.77754907    -0.23500
H1787       H  0.70982056  0.07053719  0.77432613     0.05700
H1788       H  0.72058785  0.10245227  0.79990428     0.08900
H1789       H  0.72676932  0.11547784  0.76615860     0.08900
H1790       H  0.53891950  0.14080948  0.79156313     0.08900
H1791       H  0.54559422  0.15224563  0.75766343     0.08900
H1792       H  0.55599333  0.18537305  0.78258895     0.05700
C1793       C  0.47250407  0.98650925  0.89460729    -0.20100
C1794       C  0.49868303  0.01021356  0.90630714    -0.06700
C1795       C  0.52774287  0.02475555  0.89130911     0.14200
C1796       C  0.52975702  0.01553090  0.86493852    -0.20200
C1797       C  0.50357825  0.99186756  0.85317945    -0.06700
C1798       C  0.47443114  0.97737516  0.86818982     0.14100
C1799       C  0.44478047  0.95339162  0.85628951    -0.23500
H1800       H  0.45069720  0.97460326  0.90639854     0.15400
H1801       H  0.55164764  0.02739204  0.85320962     0.15500
C1802       C  0.55725503  0.04889713  0.90322766    -0.23500
H1803       H  0.42370893  0.94490182  0.87079576     0.05700
H1804       H  0.45744485  0.92796031  0.84809552     0.08900
H1805       H  0.43038876  0.96880721  0.84063621     0.08900
H1806       H  0.57169775  0.03356325  0.91889599     0.08900
H1807       H  0.54443734  0.07425917  0.91142083     0.08900
H1808       H  0.57829206  0.05748969  0.88874625     0.05700
C1809       C  0.47686156  0.97327877  0.61924508    -0.20100
C1810       C  0.50479307  0.98898921  0.60392906    -0.06700
C1811       C  0.52999192  0.01444928  0.61540046     0.14200
C1812       C  0.52645923  0.02324886  0.64174833    -0.20200
C1813       C  0.49825282  0.00787877  0.65692835    -0.06700
C1814       C  0.47340643  0.98206068  0.64559966     0.14100
C1815       C  0.44408875  0.96239256  0.66125567    -0.23500
H1816       H  0.45748034  0.95403465  0.61047114     0.15400
H1817       H  0.54586234  0.04239706  0.65061593     0.15500
C1818       C  0.55984471  0.03374180  0.60001256    -0.23500
H1819       H  0.42864249  0.94178452  0.64945681     0.05700
H1820       H  0.42364238  0.98263748  0.66877633     0.08900
H1821       H  0.45717031  0.94737456  0.67765862     0.08900
H1822       H  0.54724349  0.04941431  0.58374518     0.08900
H1823       H  0.57988760  0.01313632  0.59239540     0.08900
H1824       H  0.57572502  0.05375391  0.61204001     0.05700
C1825       C  0.60331312  0.89200980  0.95582629    -0.20100
C1826       C  0.60499163  0.90247490  0.98213928    -0.06700
C1827       C  0.63349960  0.88799164  0.99791750     0.14200
C1828       C  0.65895555  0.86304976  0.98703190    -0.20200
C1829       C  0.65638823  0.85185472  0.96094895    -0.06700
C1830       C  0.62838869  0.86676360  0.94509143     0.14100
C1831       C  0.62521050  0.85689841  0.91676910    -0.23500
H1832       H  0.58205286  0.90359787  0.94345480     0.15400
H1833       H  0.68038559  0.85130238  0.99920148     0.15500
C1834       C  0.65021988  0.94674749  0.48586132    -0.23500
H1835       H  0.60309550  0.87304094  0.90698568     0.05700
H1836       H  0.61821324  0.82715219  0.91453633     0.08900
H1837       H  0.65179101  0.86284397  0.90678992     0.08900
H1838       H  0.64960638  0.95214551  0.50703620     0.08900
H1839       H  0.63207707  0.96691074  0.47575118     0.08900
H1840       H  0.67906032  0.95134215  0.47909325     0.05700
C1841       C  0.63382131  0.08796617  0.52073684    -0.20100
C1842       C  0.59623046  0.09753489  0.52101172    -0.06700
C1843       C  0.58576741  0.13223004  0.53143047     0.14200
C1844       C  0.61329954  0.15655482  0.54093552    -0.20200
C1845       C  0.65122835  0.14718349  0.54038483    -0.06700
C1846       C  0.66138077  0.11205322  0.53003028     0.14100
C1847       C  0.70102423  0.09879223  0.52913303    -0.23500
H1848       H  0.64171277  0.06095931  0.51325776     0.15400
H1849       H  0.61192523  0.18870125  0.04282554     0.15500
C1850       C  0.55259092  0.15067468  0.02533435    -0.23500
H1851       H  0.70308198  0.06963451  0.52241775     0.05700
H1852       H  0.71349583  0.10024771  0.54876519     0.08900
H1853       H  0.71728140  0.11579904  0.51533202     0.08900
H1854       H  0.53292973  0.13381880  0.03691015     0.08900
H1855       H  0.54463901  0.14961890  0.00458534     0.08900
H1856       H  0.55013596  0.17991341  0.03187757     0.05700
C1857       C  0.12180591  0.67066482  0.91125270    -0.20100
C1858       C  0.15694682  0.65600887  0.91658326    -0.06700
C1859       C  0.16441066  0.61853456  0.91042902     0.14200
C1860       C  0.13674583  0.59703461  0.89855215    -0.20200
C1861       C  0.10167425  0.61179056  0.89302265    -0.06700
C1862       C  0.09402705  0.64909834  0.89965255     0.14100
C1863       C  0.05705964  0.66679427  0.89393213    -0.23500
H1864       H  0.11632030  0.69953269  0.91562494     0.15400
H1865       H  0.14213627  0.56810670  0.89432549     0.15500
C1866       C  0.20085568  0.60058832  0.91725884    -0.23500
H1867       H  0.05719733  0.69688535  0.89840427     0.05700
H1868       H  0.03501426  0.65402491  0.90592878     0.08900
H1869       H  0.05025601  0.66343992  0.87308804     0.08900
H1870       H  0.20649309  0.60419451  0.93828726     0.08900
H1871       H  0.22368092  0.61299980  0.90585911     0.08900
H1872       H  0.20062923  0.57042866  0.91302089     0.05700
C1873       C  0.36626178  0.65221933  0.98274138    -0.20100
C1874       C  0.35344825  0.65017040  0.95692422    -0.06700
C1875       C  0.36347649  0.61917463  0.94174605     0.14200
C1876       C  0.38624799  0.59171577  0.95264372    -0.20200
C1877       C  0.39986907  0.59435579  0.97821006    -0.06700
C1878       C  0.38918716  0.62493211  0.99354784     0.14100
C1879       C  0.40066234  0.62857792  0.02154218    -0.23500
H1880       H  0.35792927  0.67527772  0.99484573     0.15400
H1881       H  0.39392714  0.56820407  0.94085675     0.15500
C1882       C  0.35126233  0.61509670  0.91395229    -0.23500
H1883       H  0.38732564  0.65272403  0.03106639     0.05700
H1884       H  0.43105183  0.63259982  0.02296543     0.08900
H1885       H  0.39239605  0.60334798  0.03238157     0.08900
H1886       H  0.36015075  0.63968655  0.90264580     0.08900
H1887       H  0.32069324  0.61215244  0.91295869     0.08900
H1888       H  0.36350841  0.59019843  0.90467042     0.05700
C1889       C  0.34782340  0.86234134  0.99016906    -0.20100
C1890       C  0.34275800  0.86053352  0.96310653    -0.06700
C1891       C  0.36266211  0.88479308  0.94693889     0.14200
C1892       C  0.38909374  0.90828594  0.95811741    -0.20200
C1893       C  0.39573969  0.90844301  0.98501058    -0.06700
C1894       C  0.37394873  0.88621852  0.00136312     0.14100
C1895       C  0.36526950  0.89188406  0.52763849    -0.23500
H1896       H  0.31907822  0.85126176  0.49809942     0.15400
H1897       H  0.40534365  0.92612840  0.94568656     0.15500
C1898       C  0.35759274  0.88483819  0.91795673    -0.23500
H1899       H  0.34384596  0.87386036  0.53656272     0.05700
H1900       H  0.36029105  0.92061936  0.53440636     0.08900
H1901       H  0.39281675  0.88237246  0.53449940     0.08900
H1902       H  0.32869707  0.89279231  0.91310321     0.08900
H1903       H  0.36357261  0.85691933  0.90999884     0.08900
H1904       H  0.37641213  0.90490583  0.90834471     0.05700
C1905       C  0.23521200  0.78079793  0.80024323    -0.20100
C1906       C  0.24828547  0.75054195  0.78588822    -0.06700
C1907       C  0.27176475  0.72437162  0.79817951     0.14200
C1908       C  0.27981319  0.72828626  0.82464869    -0.20200
C1909       C  0.26595085  0.75803800  0.83917229    -0.06700
C1910       C  0.24366544  0.78498285  0.82659911     0.14100
C1911       C  0.22698334  0.81730273  0.84089136    -0.23500
H1912       H  0.21805304  0.80130733  0.79076118     0.15400
H1913       H  0.29690010  0.70775693  0.83415464     0.15500
C1914       C  0.28972958  0.69294790  0.78354305    -0.23500
H1915       H  0.20919210  0.83459266  0.82817003     0.05700
H1916       H  0.24923837  0.83542923  0.84868854     0.08900
H1917       H  0.20948520  0.80671987  0.85687491     0.08900
H1918       H  0.30634183  0.70405327  0.76718374     0.08900
H1919       H  0.26827766  0.67368157  0.77611536     0.08900
H1920       H  0.30871068  0.67665646  0.79604787     0.05700
C1921       C  0.23456042  0.77295052  0.57741231    -0.20100
C1922       C  0.26373030  0.75243773  0.58869947    -0.06700
C1923       C  0.28474017  0.72865403  0.57287253     0.14200
C1924       C  0.27642093  0.72636563  0.54629574    -0.20200
C1925       C  0.24724051  0.74686647  0.53503759    -0.06700
C1926       C  0.22597816  0.77040034  0.55092331     0.14100
C1927       C  0.19506305  0.79368742  0.54001019    -0.23500
H1928       H  0.21787489  0.79089950  0.58962164     0.15400
H1929       H  0.29312345  0.70849150  0.53405879     0.15500
C1930       C  0.31496366  0.70476707  0.58400918    -0.23500
H1931       H  0.18180075  0.81107346  0.55516133     0.05700
H1932       H  0.17336838  0.77549740  0.53154575     0.08900
H1933       H  0.20605225  0.81239197  0.52479446     0.08900
H1934       H  0.30327416  0.68625400  0.59909978     0.08900
H1935       H  0.33679226  0.72248346  0.59272321     0.08900
H1936       H  0.32811257  0.68717116  0.56894392     0.05700
C1937       C  0.12953419  0.58574416  0.66239804    -0.20100
C1938       C  0.10207846  0.59656417  0.64441552    -0.06700
C1939       C  0.10013615  0.63443304  0.63738233     0.14200
C1940       C  0.12495923  0.65979176  0.64862452    -0.20200
C1941       C  0.15227383  0.64901626  0.66666990    -0.06700
C1942       C  0.15448486  0.61116597  0.67354341     0.14100
C1943       C  0.18324505  0.59688282  0.69221819    -0.23500
H1944       H  0.13147199  0.55694902  0.66812776     0.15400
H1945       H  0.12294834  0.68864190  0.64302078     0.15500
C1946       C  0.07233301  0.64887691  0.61803090    -0.23500
H1947       H  0.18108831  0.56646138  0.69498968     0.05700
H1948       H  0.17947979  0.61010282  0.71145974     0.08900
H1949       H  0.21143719  0.60284126  0.68471451     0.08900
H1950       H  0.04377938  0.64507612  0.62551959     0.08900
H1951       H  0.07564868  0.63418273  0.59925617     0.08900
H1952       H  0.07605118  0.67891764  0.61425016     0.05700
C1953       C  0.33813053  0.61313194  0.71330419    -0.20100
C1954       C  0.35109287  0.64868697  0.70677993    -0.06700
C1955       C  0.38891759  0.65706652  0.71145754     0.14200
C1956       C  0.41231748  0.63000055  0.72247178    -0.20200
C1957       C  0.39933414  0.59437855  0.72870542    -0.06700
C1958       C  0.36156188  0.58594980  0.72393768     0.14100
C1959       C  0.34524816  0.54875494  0.73072998    -0.23500
H1960       H  0.30918678  0.60651429  0.71014060     0.15400
H1961       H  0.44125779  0.63650407  0.72575359     0.15500
C1962       C  0.40468072  0.69477112  0.70573669    -0.23500
H1963       H  0.31479008  0.54807364  0.72761311     0.05700
H1964       H  0.35059717  0.54249777  0.75144819     0.08900
H1965       H  0.35746825  0.52680037  0.71836334     0.08900
H1966       H  0.38909113  0.71605399  0.71673215     0.08900
H1967       H  0.40278164  0.70055374  0.68466486     0.08900
H1968       H  0.43430221  0.69688778  0.71140296     0.05700
C1969       C  0.34025119  0.88514025  0.71693955    -0.20100
C1970       C  0.35290929  0.84927172  0.71103541    -0.06700
C1971       C  0.38986785  0.83998522  0.71772141     0.14200
C1972       C  0.41326470  0.86704255  0.72900344    -0.20200
C1973       C  0.40077121  0.90326970  0.73411957    -0.06700
C1974       C  0.36334495  0.91201826  0.72835153     0.14100
C1975       C  0.34686719  0.94925595  0.73493400    -0.23500
H1976       H  0.31173240  0.89225804  0.71266869     0.15400
H1977       H  0.44172253  0.85997342  0.73348071     0.15500
C1978       C  0.40434316  0.80125288  0.71413199    -0.23500
H1979       H  0.31649929  0.94988618  0.73146395     0.05700
H1980       H  0.35932247  0.97117209  0.72272534     0.08900
H1981       H  0.35164242  0.95560702  0.75574430     0.08900
H1982       H  0.40411155  0.79371053  0.69330191     0.08900
H1983       H  0.38670092  0.78163461  0.72517066     0.08900
H1984       H  0.43322668  0.79839937  0.72130003     0.05700
C1985       C  0.11809445  0.34756939  0.85029032    -0.20100
C1986       C  0.14403556  0.35589307  0.83073874    -0.06700
C1987       C  0.14597762  0.39276052  0.82151311     0.14200
C1988       C  0.12236934  0.41973455  0.83216282    -0.20200
C1989       C  0.09668184  0.41144424  0.85193148    -0.06700
C1990       C  0.09465994  0.37449044  0.86103406     0.14100
C1991       C  0.06817923  0.36259278  0.88206031    -0.23500
H1992       H  0.11616477  0.31952933  0.85757090     0.15400
H1993       H  0.12410121  0.44772286  0.82477535     0.15500
C1994       C  0.17291638  0.40444917  0.80073975    -0.23500
H1995       H  0.07131047  0.33284699  0.88698143     0.05700
H1996       H  0.03915293  0.36665741  0.87555626     0.08900
H1997       H  0.07355078  0.37870626  0.90002039     0.08900
H1998       H  0.16752397  0.38862305  0.78266383     0.08900
H1999       H  0.20178826  0.39969690  0.80738491     0.08900
H2000       H  0.17031696  0.43432024  0.79600655     0.05700
C2001       C  0.36193401  0.40625419  0.76744558    -0.20100
C2002       C  0.39908123  0.39505781  0.76843743    -0.06700
C2003       C  0.40760610  0.35996597  0.77922260     0.14200
C2004       C  0.37897995  0.33767974  0.78922975    -0.20200
C2005       C  0.34176610  0.34910659  0.78877557    -0.06700
C2006       C  0.33323233  0.38402007  0.77743084     0.14100
C2007       C  0.29420381  0.39893247  0.77631316    -0.23500
H2008       H  0.35539222  0.43326336  0.75947472     0.15400
H2009       H  0.38577305  0.31072493  0.79716253     0.15500
C2010       C  0.44671050  0.34519578  0.77961775    -0.23500
H2011       H  0.29338277  0.42773352  0.76881842     0.05700
H2012       H  0.28190375  0.39916532  0.79601985     0.08900
H2013       H  0.27702684  0.38181118  0.76307389     0.08900
H2014       H  0.46423963  0.36193781  0.79282983     0.08900
H2015       H  0.45850479  0.34578409  0.75975262     0.08900
H2016       H  0.44777044  0.31614273  0.78659667     0.05700
C2017       C  0.36201298  0.09397893  0.77342913    -0.20100
C2018       C  0.39937035  0.10409680  0.77560154    -0.06700
C2019       C  0.40832015  0.13876560  0.78709205     0.14200
C2020       C  0.37974906  0.16215782  0.79577977    -0.20200
C2021       C  0.34227990  0.15221600  0.79346201    -0.06700
C2022       C  0.33341499  0.11721243  0.78227220     0.14100
C2023       C  0.29408732  0.10329572  0.77997385    -0.23500
H2024       H  0.35511656  0.06721214  0.76516209     0.15400
H2025       H  0.38682862  0.18887660  0.80402458     0.15500
C2026       C  0.44780860  0.15210233  0.78966080    -0.23500
H2027       H  0.29296663  0.07422834  0.77293924     0.05700
H2028       H  0.27839238  0.12027762  0.76584261     0.08900
H2029       H  0.28036540  0.10416545  0.79921076     0.08900
H2030       H  0.46168717  0.15134509  0.77048453     0.08900
H2031       H  0.46318111  0.13458164  0.80364565     0.08900
H2032       H  0.44925123  0.18100324  0.79698646     0.05700
C2033       C  0.21986935  0.23028566  0.92103568    -0.20100
C2034       C  0.25118073  0.24774027  0.90993157    -0.06700
C2035       C  0.27684124  0.26545648  0.92631453     0.14200
C2036       C  0.26998273  0.26620221  0.95303595    -0.20200
C2037       C  0.23853943  0.24906361  0.96412799    -0.06700
C2038       C  0.21327962  0.23063382  0.94783738     0.14100
C2039       C  0.18014822  0.21041472  0.95853203    -0.23500
H2040       H  0.20013226  0.21618602  0.90854982     0.15400
H2041       H  0.28977974  0.28021136  0.96552390     0.15500
C2042       C  0.31097130  0.28426483  0.91587952    -0.23500
H2043       H  0.16391148  0.19656078  0.94298964     0.05700
H2044       H  0.16153044  0.23023042  0.96854682     0.08900
H2045       H  0.18939803  0.18884104  0.97240775     0.08900
H2046       H  0.30293229  0.30620968  0.90197073     0.08900
H2047       H  0.32891749  0.26360760  0.90604038     0.08900
H2048       H  0.32758666  0.29736344  0.93153741     0.05700
C2049       C  0.22851912  0.21753566  0.69944135    -0.20100
C2050       C  0.23558167  0.25040722  0.71311840    -0.06700
C2051       C  0.25437986  0.27973270  0.70041521     0.14200
C2052       C  0.26519979  0.27524664  0.67457707    -0.20200
C2053       C  0.25779869  0.24255326  0.66074875    -0.06700
C2054       C  0.23915397  0.21312379  0.67350919     0.14100
C2055       C  0.22928129  0.17724427  0.66011960    -0.23500
H2056       H  0.21464253  0.19489098  0.70921559     0.15400
H2057       H  0.27923538  0.29789842  0.66494831     0.15500
C2058       C  0.26434997  0.31560247  0.71382968    -0.23500
H2059       H  0.21469594  0.15777945  0.67327570     0.05700
H2060       H  0.25484870  0.16318210  0.65333957     0.08900
H2061       H  0.21052002  0.18269567  0.64350742     0.08900
H2062       H  0.28244423  0.31001014  0.73077686     0.08900
H2063       H  0.23879069  0.33014347  0.72012678     0.08900
H2064       H  0.27964992  0.33475607  0.70086087     0.05700
C2065       C  0.13470783  0.40084247  0.61107106    -0.20100
C2066       C  0.09710152  0.39169973  0.60930712    -0.06700
C2067       C  0.08686180  0.35744340  0.59779576     0.14200
C2068       C  0.11439807  0.33436796  0.58729338    -0.20200
C2069       C  0.15201213  0.34418014  0.58812104    -0.06700
C2070       C  0.16227937  0.37780336  0.60070247     0.14100
C2071       C  0.20200575  0.39069212  0.60271013    -0.23500
H2072       H  0.14257075  0.42710665  0.61972589     0.15400
H2073       H  0.10643793  0.30819181  0.57856142     0.15500
C2074       C  0.04712787  0.34441522  0.59697346    -0.23500
H2075       H  0.20414795  0.41891023  0.61117331     0.05700
H2076       H  0.21477903  0.39154711  0.58317566     0.08900
H2077       H  0.21797865  0.37197144  0.61557834     0.08900
H2078       H  0.03054000  0.36192192  0.58370703     0.08900
H2079       H  0.03506883  0.34530902  0.61675780     0.08900
H2080       H  0.04490312  0.31549088  0.58978445     0.05700
C2081       C  0.38269182  0.40850888  0.55055658    -0.20100
C2082       C  0.39156358  0.40998781  0.52400454    -0.06700
C2083       C  0.37363015  0.38569068  0.50667119     0.14200
C2084       C  0.34892336  0.35925994  0.51650624    -0.20200
C2085       C  0.34139591  0.35644713  0.54323899    -0.06700
C2086       C  0.35757871  0.38234005  0.56039334     0.14100
C2087       C  0.34982354  0.38175053  0.58907336    -0.23500
H2088       H  0.39617422  0.42756258  0.56382078     0.15400
H2089       H  0.33584854  0.34007270  0.50313763     0.15500
C2090       C  0.38176724  0.38613438  0.47803406    -0.23500
H2091       H  0.36595593  0.40323522  0.59959740     0.05700
H2092       H  0.35739742  0.35436476  0.59722751     0.08900
H2093       H  0.31997948  0.38729284  0.59260364     0.08900
H2094       H  0.35108516  0.43855287  0.98373127     0.08900
H2095       H  0.37358981  0.41322007  0.46969317     0.08900
H2096       H  0.36622685  0.36423210  0.46750506     0.05700
C2097       C  0.36518335  0.12411932  0.55951568    -0.20100
C2098       C  0.34898042  0.14699535  0.54085130    -0.06700
C2099       C  0.35871642  0.14232383  0.51437312     0.14200
C2100       C  0.38494441  0.11540460  0.50747133    -0.20200
C2101       C  0.40140079  0.09270299  0.52615903    -0.06700
C2102       C  0.39139178  0.09718024  0.55262802     0.14100
C2103       C  0.40903442  0.07474472  0.57399041    -0.23500
H2104       H  0.35775254  0.12781923  0.57970954     0.15400
H2105       H  0.44139397  0.13923066  0.02352167     0.15500
C2106       C  0.40300519  0.19732551  0.04189442    -0.23500
H2107       H  0.40005949  0.08423998  0.59347595     0.05700
H2108       H  0.43965874  0.07741462  0.57306090     0.08900
H2109       H  0.40095645  0.04520944  0.57221154     0.08900
H2110       H  0.39891050  0.20633502  0.06226720     0.08900
H2111       H  0.31012867  0.16184477  0.49420215     0.08900
H2112       H  0.43300090  0.19964535  0.03738651     0.05700
C2113       C  0.86971933  0.08416261  0.84353427    -0.20100
C2114       C  0.90167162  0.09555104  0.85683031    -0.06700
C2115       C  0.91072792  0.13349011  0.85798188     0.14200
C2116       C  0.88773112  0.15919968  0.84569447    -0.20200
C2117       C  0.85589087  0.14809802  0.83199637    -0.06700
C2118       C  0.84663115  0.10998047  0.83104213     0.14100
C2119       C  0.81220258  0.09635765  0.81750341    -0.23500
H2120       H  0.86352367  0.05486638  0.84219331     0.15400
H2121       H  0.89465376  0.18834797  0.84688718     0.15500
C2122       C  0.94449827  0.14699753  0.87245444    -0.23500
H2123       H  0.80887820  0.06591171  0.81935603     0.05700
H2124       H  0.81371780  0.10295265  0.79653756     0.08900
H2125       H  0.78735092  0.10966283  0.82610089     0.08900
H2126       H  0.97009778  0.13606926  0.86334534     0.08900
H2127       H  0.94315543  0.13762903  0.89291254     0.08900
H2128       H  0.94643512  0.17767731  0.87243569     0.05700
C2129       C  0.86808798  0.83776184  0.89183436    -0.20100
C2130       C  0.85367707  0.84187072  0.91718594    -0.06700
C2131       C  0.86716950  0.87138766  0.93261694     0.14200
C2132       C  0.89268609  0.89654728  0.92190777    -0.20200
C2133       C  0.90570590  0.89323155  0.89623590    -0.06700
C2134       C  0.89383753  0.86274445  0.88125988     0.14100
C2135       C  0.90706249  0.85688589  0.85386045    -0.23500
H2136       H  0.85862618  0.81511183  0.87973978     0.15400
H2137       H  0.90257276  0.91923927  0.93382690     0.15500
C2138       C  0.85526685  0.87677210  0.96035207    -0.23500
H2139       H  0.89359310  0.83254023  0.84463584     0.05700
H2140       H  0.93740604  0.85187371  0.85375075     0.08900
H2141       H  0.90052898  0.88159597  0.84195570     0.08900
H2142       H  0.86153658  0.85144951  0.97172258     0.08900
H2143       H  0.82519151  0.88288412  0.96120735     0.08900
H2144       H  0.87001051  0.90028186  0.96969889     0.05700
C2145       C  0.09335387  0.88199062  0.92211787    -0.20100
C2146       C  0.09534534  0.89322578  0.89606457    -0.06700
C2147       C  0.12423914  0.87997164  0.88038583     0.14200
C2148       C  0.15093530  0.85645107  0.89122298    -0.20200
C2149       C  0.14943313  0.84510868  0.91732468    -0.06700
C2150       C  0.11972774  0.85769573  0.93289592     0.14100
C2151       C  0.11643569  0.84704532  0.96100054    -0.23500
H2152       H  0.07126475  0.89280250  0.93420299     0.15400
H2153       H  0.17353558  0.84711873  0.87909392     0.15500
C2154       C  0.12781241  0.89184271  0.85253321    -0.23500
H2155       H  0.09251155  0.86088565  0.97047709     0.05700
H2156       H  0.14195850  0.85523912  0.97158705     0.08900
H2157       H  0.11222014  0.81671430  0.96269798     0.08900
H2158       H  0.13057352  0.92241942  0.85149412     0.08900
H2159       H  0.10288212  0.88307648  0.84151937     0.08900
H2160       H  0.15247769  0.87935143  0.84309566     0.05700
C2161       C  0.11349146  0.08914735  0.82735321    -0.20100
C2162       C  0.10639132  0.08801135  0.85413615    -0.06700
C2163       C  0.12283340  0.11435801  0.87059691     0.14200
C2164       C  0.14498382  0.14213219  0.85971514    -0.20200
C2165       C  0.15112093  0.14417745  0.83276481    -0.06700
C2166       C  0.13584434  0.11675488  0.81642314     0.14100
C2167       C  0.14140634  0.11729834  0.78748990    -0.23500
H2168       H  0.10045605  0.06885719  0.81480714     0.15400
H2169       H  0.15725937  0.16272489  0.87238316     0.15500
C2170       C  0.11558192  0.11439158  0.89933772    -0.23500
H2171       H  0.12572785  0.09476865  0.77770735     0.05700
H2172       H  0.17116553  0.11338509  0.78285652     0.08900
H2173       H  0.13166595  0.14408723  0.77947496     0.08900
H2174       H  0.12561287  0.08810717  0.90793666     0.08900
H2175       H  0.08540152  0.11726159  0.90301881     0.08900
H2176       H  0.13000609  0.13761288  0.90925275     0.05700
C2177       C  0.97551462  0.97718559  0.73317149    -0.20100
C2178       C  0.99549330  0.00720425  0.72253859    -0.06700
C2179       C  0.01810615  0.02875904  0.73884615     0.14200
C2180       C  0.02087390  0.01918047  0.76510459    -0.20200
C2181       C  0.00121903  0.98888029  0.77568389    -0.06700
C2182       C  0.97803697  0.96780597  0.75946890     0.14100
C2183       C  0.95512501  0.93628536  0.76984285    -0.23500
H2184       H  0.95809623  0.96049626  0.72062182     0.15400
H2185       H  0.03829689  0.03587739  0.77764795     0.15500
C2186       C  0.04001048  0.06110880  0.72864722    -0.23500
H2187       H  0.93785118  0.92334273  0.75447618     0.05700
H2188       H  0.93630687  0.94655791  0.78527317     0.08900
H2189       H  0.97356667  0.91460629  0.77790156     0.08900
H2190       H  0.02081710  0.08218513  0.72056334     0.08900
H2191       H  0.05929788  0.05164486  0.71327825     0.08900
H2192       H  0.05665059  0.07460770  0.74413063     0.05700
C2193       C  0.02723257  0.00820012  0.51510529    -0.20100
C2194       C  0.99944196  0.98553824  0.52575098    -0.06700
C2195       C  0.97128857  0.97148278  0.50940545     0.14200
C2196       C  0.96663436  0.99992502  0.98542901    -0.20200
C2197       C  0.00104913  0.00295825  0.97283973    -0.06700
C2198       C  0.03380557  0.99491040  0.98705134     0.14100
C2199       C  0.07218010  0.99685574  0.97543888    -0.23500
H2200       H  0.04851056  0.01953862  0.52762751     0.15400
H2201       H  0.94143370  0.00544850  0.97473722     0.15500
C2202       C  0.94193143  0.94531296  0.51923404    -0.23500
H2203       H  0.09414571  0.99077298  0.98990456     0.05700
H2204       H  0.07752073  0.02513965  0.96791931     0.08900
H2205       H  0.07504040  0.97606036  0.95970869     0.08900
H2206       H  0.92348979  0.95962304  0.53318230     0.08900
H2207       H  0.95524810  0.92116681  0.52876645     0.08900
H2208       H  0.92421588  0.93466616  0.50325857     0.05700
C2209       C  0.91087326  0.13231279  0.60132581    -0.20100
C2210       C  0.89842428  0.09590071  0.60498662    -0.06700
C2211       C  0.86130895  0.08689287  0.59836397     0.14200
C2212       C  0.83838162  0.11406238  0.58727057    -0.20200
C2213       C  0.85107336  0.15027983  0.58320105    -0.06700
C2214       C  0.88771273  0.15964694  0.59073249     0.14100
C2215       C  0.90308052  0.19812097  0.58701830    -0.23500
H2216       H  0.93926820  0.13925531  0.60622474     0.15400
H2217       H  0.80991258  0.10727798  0.58246867     0.15500
C2218       C  0.84506083  0.04923463  0.60389382    -0.23500
H2219       H  0.93295831  0.19963090  0.59210292     0.05700
H2220       H  0.88834494  0.21809914  0.59970336     0.08900
H2221       H  0.90003897  0.20653480  0.56646726     0.08900
H2222       H  0.84902478  0.04231000  0.62469004     0.08900
H2223       H  0.85834932  0.02786495  0.59162354     0.08900
H2224       H  0.81485400  0.04834809  0.59975547     0.05700
C2225       C  0.89344634  0.89603330  0.67361316    -0.20100
C2226       C  0.89448835  0.90316047  0.64674297    -0.06700
C2227       C  0.86737019  0.88700594  0.63058514     0.14200
C2228       C  0.84115709  0.86296153  0.64152419    -0.20200
C2229       C  0.84091642  0.85489442  0.66822780    -0.06700
C2230       C  0.86693280  0.87229554  0.68456874     0.14100
C2231       C  0.86794467  0.86477271  0.71325622    -0.23500
H2232       H  0.91377357  0.90893992  0.68617812     0.15400
H2233       H  0.82098557  0.84972581  0.62899669     0.15500
C2234       C  0.86671235  0.89364372  0.60177076    -0.23500
H2235       H  0.89090941  0.87990746  0.72296266     0.05700
H2236       H  0.87199041  0.83472264  0.71672373     0.08900
H2237       H  0.84156317  0.87385669  0.72227868     0.08900
H2238       H  0.89369182  0.88552938  0.59314698     0.08900
H2239       H  0.86122966  0.92331966  0.59779102     0.08900
H2240       H  0.84463073  0.87728831  0.59204095     0.05700
C2241       C  0.10730052  0.89827221  0.67300174    -0.20100
C2242       C  0.10630474  0.90643754  0.64628427    -0.06700
C2243       C  0.13303265  0.89028427  0.62980243     0.14200
C2244       C  0.15863348  0.86509517  0.64026886    -0.20200
C2245       C  0.15869093  0.85613428  0.66680558    -0.06700
C2246       C  0.13312612  0.87341336  0.68344721     0.14100
C2247       C  0.13171617  0.86431094  0.71190169    -0.23500
H2248       H  0.08722380  0.91099828  0.68583493     0.15400
H2249       H  0.17845393  0.85172443  0.62754448     0.15500
C2250       C  0.13387775  0.89814954  0.60115283    -0.23500
H2251       H  0.10911886  0.87948258  0.72193040     0.05700
H2252       H  0.15827604  0.87209488  0.72126884     0.08900
H2253       H  0.12679556  0.83418440  0.71449474     0.08900
H2254       H  0.13980170  0.92793394  0.59784824     0.08900
H2255       H  0.10681382  0.89080111  0.59229399     0.08900
H2256       H  0.15574911  0.88191192  0.59113727     0.05700
C2257       C  0.11328200  0.16183036  0.58831654    -0.20100
C2258       C  0.14886366  0.14916907  0.58148273    -0.06700
C2259       C  0.15745131  0.11129264  0.58532132     0.14200
C2260       C  0.13075310  0.08754485  0.59598362    -0.20200
C2261       C  0.09537756  0.10007964  0.60323353    -0.06700
C2262       C  0.08650268  0.13787517  0.59921215     0.14100
C2263       C  0.04870179  0.15295050  0.60565002    -0.23500
H2264       H  0.10665383  0.19085218  0.58566028     0.15400
H2265       H  0.13768587  0.05859766  0.59867287     0.15500
C2266       C  0.19438765  0.09513091  0.57756120    -0.23500
H2267       H  0.04618123  0.18268112  0.60047203     0.05700
H2268       H  0.04349144  0.15039286  0.62675852     0.08900
H2269       H  0.02715095  0.13742716  0.59474479     0.08900
H2270       H  0.21677258  0.10628989  0.59006911     0.08900
H2271       H  0.20023158  0.10168176  0.55696243     0.08900
H2272       H  0.19485483  0.06454154  0.57966062     0.05700
loop_ 
_geom_bond_atom_site_label_1 
_geom_bond_atom_site_label_2 
_geom_bond_distance 
_geom_bond_site_symmetry_2 
_ccdc_geom_bond_type 
Zn1           O5   1.944   1_655  S
Zn1           O6   1.969   1_565  S
Zn1          O10   2.035       .  S
Zn1          O17   1.994       .  S
Zn2           O5   1.987   1_545  S
Zn2           O7   2.101       .  S
Zn2           O9   2.070   1_455  S
Zn2          O13   2.075       .  S
Zn3           O5   1.917       .  S
Zn3           O8   1.975   1_455  S
Zn3          O11   1.905   1_455  S
Zn3          O14   1.965       .  S
Zn4           O5   1.944       .  S
Zn4          O12   2.043       .  S
Zn4          O15   1.997   1_565  S
Zn4          O16   1.989       .  S
O6           C18   1.266       .  A
O7           C19   1.285   1_455  A
O8           C20   1.267       .  A
O9           C18   1.280       .  A
O10          C20   1.273       .  A
O11          C19   1.260   1_565  A
O12          C21   1.275       .  A
O13          C22   1.280       .  A
O14          C21   1.266       .  A
O15          C22   1.271       .  A
O16          C23   1.274   1_455  A
O17          C23   1.271       .  A
C18        C1074   1.490       .  S
C19        C1042   1.478       .  S
C20        C1090   1.484       .  S
C21        C1106   1.476       .  S
C22        C1125   1.495       .  S
C23        C1058   1.487       .  S
Zn24         O28   1.954   1_545  S
Zn24         O29   2.007       .  S
Zn24         O33   1.972   1_545  S
Zn24         O40   2.054       .  S
Zn25         O28   1.954   1_445  S
Zn25         O30   1.998   1_545  S
Zn25         O32   2.001       .  S
Zn25         O36   2.065       .  S
Zn26         O28   1.986       .  S
Zn26         O31   2.060       .  S
Zn26         O34   2.057   1_655  S
Zn26         O37   2.097       .  S
Zn27         O28   1.904   1_445  S
Zn27         O35   1.909       .  S
Zn27         O38   1.944       .  S
Zn27         O39   1.949   1_455  S
O29          C41   1.274       .  A
O30          C42   1.271       .  A
O31          C43   1.279       .  A
O32          C41   1.272   1_455  A
O33          C43   1.269       .  A
O34          C42   1.279       .  A
O35          C44   1.259   1_545  A
O36          C45   1.277       .  A
O37          C44   1.283   1_655  A
O38          C45   1.264       .  A
O39          C46   1.264       .  A
O40          C46   1.276       .  A
C41        C1061   1.480       .  S
C42        C1010   1.480       .  S
C43         C997   1.497       .  S
C44        C1045   1.479       .  S
C45        C1026   1.480       .  S
C46         C978   1.481       .  S
Zn47         O51   1.911       .  S
Zn47         O52   1.949       .  S
Zn47         O56   1.954       .  S
Zn47       O1199   1.906       .  S
Zn48         O51   1.952       .  S
Zn48         O53   2.000       .  S
Zn48         O55   2.052       .  S
Zn48         O59   1.996       .  S
Zn49         O51   1.955       .  S
Zn49         O54   2.040       .  S
Zn49         O57   1.993       .  S
Zn49         O60   1.973       .  S
Zn50         O51   1.987       .  S
Zn50         O58   2.077       .  S
Zn50         O61   2.081       .  S
Zn50         O62   2.102       .  S
O52          C64   1.262       .  A
O53          C65   1.272       .  A
O54          C66   1.272       .  A
O55          C64   1.276       .  A
O56          C66   1.262       .  A
O57          C65   1.273       .  A
O58          C67   1.282       .  A
O59          C68   1.270       .  A
O60          C67   1.266       .  A
O61          C68   1.282       .  A
O62        C1205   1.284   1_554  A
O63       Zn1183   1.911       .  S
O63          C69   1.261       .  A
C64         C962   1.475       .  S
C65         C917   1.481       .  S
C66         C949   1.465       .  S
C67         C933   1.496       .  S
C68        C1122   1.496       .  S
C69        O1198   1.285       .  A
C69         C901   1.479       .  S
Zn70         O74   1.986       .  S
Zn70         O75   2.073       .  S
Zn70         O79   2.067       .  S
Zn70         O86   2.094       .  S
Zn71         O74   1.953       .  S
Zn71         O76   2.001       .  S
Zn71         O78   1.989       .  S
Zn71         O82   2.040       .  S
Zn72         O74   1.948       .  S
Zn72         O77   1.984       .  S
Zn72         O80   1.993       .  S
Zn72         O83   2.038       .  S
Zn73         O74   1.919       .  S
Zn73         O81   1.972       .  S
Zn73         O84   1.967       .  S
Zn73         O85   1.916       .  S
O75          C87   1.282       .  A
O76          C88   1.272       .  A
O77          C89   1.268       .  A
O78          C87   1.268       .  A
O79          C89   1.281       .  A
O80          C88   1.273       .  A
O81          C90   1.266       .  A
O82          C91   1.275       .  A
O83          C90   1.274       .  A
O84          C91   1.267       .  A
O85          C92   1.261       .  A
O86          C92   1.283       .  A
C87         C869   1.495       .  S
C88         C914   1.484       .  S
C89         C885   1.499       .  S
C90        C1029   1.476       .  S
C91         C850   1.486       .  S
C92         C898   1.479       .  S
Zn93         O97   1.919       .  S
Zn93         O98   1.905       .  S
Zn93        O102   1.963       .  S
Zn93        O109   1.975       .  S
Zn94         O97   1.993       .  S
Zn94         O99   2.091       .  S
Zn94        O101   2.093       .  S
Zn94        O105   2.064       .  S
Zn95         O97   1.957       .  S
Zn95        O100   2.044       .  S
Zn95        O103   2.007       .  S
Zn95        O106   1.994       .  S
Zn96         O97   1.961       .  S
Zn96        O104   2.004       .  S
Zn96        O107   1.997       .  S
Zn96        O108   2.072       .  S
O98         C110   1.260       .  A
O99         C111   1.281       .  A
O100        C112   1.274       .  A
O101        C110   1.283       .  A
O102        C112   1.265       .  A
O103        C111   1.272       .  A
O104        C113   1.274       .  A
O105        C114   1.279       .  A
O106        C113   1.274       .  A
O107        C114   1.273       .  A
O108        C115   1.277       .  A
O109        C115   1.267       .  A
C110        C786   1.469       .  S
C111        C834   1.502       .  S
C112       C1109   1.479       .  S
C113        C770   1.478       .  S
C114        C818   1.498       .  S
C115        C805   1.502       .  S
Zn116       O120   1.945       .  S
Zn116       O121   1.973       .  S
Zn116       O125   2.039       .  S
Zn116       O132   1.998       .  S
Zn117       O120   1.979       .  S
Zn117       O122   2.095       .  S
Zn117       O124   2.047       .  S
Zn117       O128   2.070       .  S
Zn118       O120   1.907       .  S
Zn118       O123   1.968       .  S
Zn118       O129   1.938       .  S
Zn118      O1262   1.930       .  S
Zn119       O120   1.951       .  S
Zn119       O127   2.037       .  S
Zn119       O130   1.985       .  S
Zn119       O131   2.000       .  S
O121        C133   1.268       .  A
O122       C1270   1.283       .  A
O123        C135   1.267       .  A
O124        C133   1.280       .  A
O125        C135   1.274       .  A
O126      Zn1254   1.920       .  S
O126        C134   1.261   1_556  A
O127        C136   1.274       .  A
O128        C137   1.279       .  A
O129        C136   1.264       .  A
O130        C137   1.270       .  A
O131        C138   1.272       .  A
O132        C138   1.273       .  A
C133        C722   1.482       .  S
C134       O1258   1.281   1_554  A
C134        C789   1.469       .  S
C135        C738   1.494       .  S
C136        C754   1.467       .  S
C137       C1013   1.490       .  S
C138        C773   1.477       .  S
Zn139       O143   1.978   1_545  S
Zn139       O144   2.089       .  S
Zn139       O148   2.070       .  S
Zn139       O155   2.056       .  S
Zn140       O143   1.916       .  S
Zn140       O145   1.966       .  S
Zn140       O147   1.933       .  S
Zn140       O151   1.944       .  S
Zn141      O1279   1.946       .  S
Zn141       O146   1.976   1_565  S
Zn141       O149   2.043       .  S
Zn141       O152   2.001       .  S
Zn142      O1279   1.948       .  S
Zn142       O150   1.999       .  S
Zn142       O153   2.030       .  S
Zn142       O154   1.968   1_565  S
O143      Zn1277   1.941       .  S
O143      Zn1278   1.950       .  S
O144        C156   1.283       .  A
O145        C157   1.267       .  A
O146        C158   1.270       .  A
O147        C156   1.262   1_565  A
O148       C1294   1.279       .  A
O149       C1293   1.275   1_554  A
O150        C159   1.273       .  A
O151        C160   1.264       .  A
O152        C159   1.272       .  A
O153       C1296   1.273   1_554  A
O154        C161   1.266       .  A
O155       C1297   1.279       .  A
C156        C658   1.480       .  S
C157       O1285   1.275       .  A
C157        C690   1.477       .  S
C158       O1284   1.278       .  A
C158        C706   1.486       .  S
C159        C674   1.478       .  S
C160       O1289   1.273       .  A
C160        C757   1.472       .  S
C161       O1291   1.278       .  A
C161        C965   1.479       .  S
Zn162       O166   1.960       .  S
Zn162       O167   2.018   1_545  S
Zn162       O171   2.000       .  S
Zn162       O178   2.071       .  S
Zn163       O166   1.993   1_565  S
Zn163       O168   2.073       .  S
Zn163       O170   2.078       .  S
Zn163       O174   2.105       .  S
Zn164       O166   1.964       .  S
Zn164       O169   1.998       .  S
Zn164       O172   2.000   1_545  S
Zn164       O175   2.058       .  S
Zn165       O166   1.924       .  S
Zn165       O173   1.970       .  S
Zn165       O176   1.918       .  S
Zn165       O177   1.976       .  S
O167        C179   1.273       .  A
O168        C180   1.280       .  A
O169        C181   1.273       .  A
O170        C179   1.281       .  A
O171        C181   1.273       .  A
O172        C180   1.271       .  A
O173        C182   1.264       .  A
O174        C183   1.286       .  A
O175        C182   1.277       .  A
O176        C183   1.263   1_545  A
O177        C184   1.265       .  A
O178        C184   1.279       .  A
C179        C837   1.505       .  S
C180        C626   1.494       .  S
C181        C677   1.475       .  S
C182        C642   1.488       .  S
C183        C661   1.483       .  S
C184        C882   1.492       .  S
Zn185       O189   1.915       .  S
Zn185       O190   1.983       .  S
Zn185       O194   1.960       .  S
Zn185       O201   1.926       .  S
Zn186       O189   1.956       .  S
Zn186       O191   2.022       .  S
Zn186       O193   2.070       .  S
Zn186       O197   1.988       .  S
Zn187       O189   1.953       .  S
Zn187       O192   2.051       .  S
Zn187       O195   2.003       .  S
Zn187       O198   1.993       .  S
Zn188       O189   1.992       .  S
Zn188       O196   2.076       .  S
Zn188       O199   2.060       .  S
Zn188       O200   2.095       .  S
O190        C202   1.268       .  A
O191        C203   1.274       .  A
O192        C204   1.276       .  A
O193        C202   1.278       .  A
O194        C204   1.266       .  A
O195        C203   1.274       .  A
O196        C205   1.280       .  A
O197        C206   1.270       .  A
O198        C205   1.271       .  A
O199        C206   1.280       .  A
O200        C207   1.282       .  A
O201        C207   1.263       .  A
C202        C597   1.503       .  S
C203        C562   1.497       .  S
C204       C1093   1.474       .  S
C205        C629   1.499       .  S
C206        C610   1.492       .  S
C207        C578   1.477       .  S
Zn208       O212   1.947       .  S
Zn208       O213   2.029       .  S
Zn208       O217   1.973       .  S
Zn208       O224   2.004       .  S
Zn209       O212   1.907       .  S
Zn209       O214   1.935       .  S
Zn209       O216   1.939       .  S
Zn209       O220   1.959       .  S
Zn210       O212   1.971       .  S
Zn210       O215   2.050       .  S
Zn210       O218   2.076       .  S
Zn210       O221   2.024       .  S
Zn211       O212   1.954       .  S
Zn211       O219   1.987       .  S
Zn211       O222   2.060       .  S
Zn211       O223   2.023       .  S
O213        C225   1.275       .  A
O214        C226   1.262       .  A
O215        C227   1.277       .  A
O216        C225   1.262       .  A
O217        C227   1.267       .  A
O218        C226   1.279       .  A
O219        C228   1.272       .  A
O220        C229   1.266       .  A
O221        C228   1.276       .  A
O222        C229   1.278       .  A
O223       C1366   1.275       .  A
O224       C1366   1.272       .  A
C225        C530   1.470       .  S
C226        C565   1.467       .  S
C227        C546   1.483       .  S
C228        C693   1.482       .  S
C229        C994   1.489       .  S
C230       O1359   1.275   1_554  A
C230       O1360   1.272   1_554  A
C230        C581   1.483       .  S
Zn231       O235   1.917       .  S
Zn231       O236   1.946       .  S
Zn231       O240   1.976       .  S
Zn231       O247   1.939       .  S
Zn232       O235   1.953       .  S
Zn232       O237   1.999       .  S
Zn232       O239   2.030       .  S
Zn232       O243   1.985       .  S
Zn233       O235   1.944       .  S
Zn233       O238   2.062       .  S
Zn233       O241   2.009       .  S
Zn233       O244   1.988       .  S
Zn234       O235   1.980       .  S
Zn234       O242   2.045       .  S
Zn234       O245   2.059       .  S
Zn234       O246   2.077       .  S
O236        C248   1.263       .  A
O237       C1385   1.274   1_554  A
O238        C250   1.278       .  A
O239        C248   1.274       .  A
O240        C250   1.265       .  A
O241       C1385   1.272   1_554  A
O242        C251   1.278       .  A
O243        C252   1.267       .  A
O244        C251   1.270       .  A
O245        C252   1.279       .  A
O246        C253   1.280       .  A
O247        C253   1.263       .  A
C248        C498   1.471       .  S
C249       O1373   1.274       .  A
C249       O1377   1.275       .  A
C249        C469   1.493       .  S
C250       C1077   1.485       .  S
C251        C709   1.487       .  S
C252        C514   1.493       .  S
C253        C485   1.467       .  S
Zn254       O258   1.922       .  S
Zn254       O259   1.981       .  S
Zn254       O263   1.969       .  S
Zn254       O270   1.946       .  S
Zn255       O258   1.954       .  S
Zn255       O260   2.023       .  S
Zn255       O262   2.051       .  S
Zn255       O266   1.995       .  S
Zn256       O258   1.954       .  S
Zn256       O261   2.038       .  S
Zn256       O264   2.006       .  S
Zn256       O267   1.981       .  S
Zn257       O258   1.978       .  S
Zn257       O265   2.046       .  S
Zn257       O268   2.041       .  S
Zn257       O269   2.066       .  S
O259        C271   1.269       .  A
O260        C272   1.274       .  A
O261        C273   1.275       .  A
O262        C271   1.278       .  A
O263        C273   1.267       .  A
O264        C272   1.275       .  A
O265        C274   1.278       .  A
O266        C275   1.270       .  A
O267        C274   1.267       .  A
O268        C275   1.278       .  A
O269        C276   1.278       .  A
O270        C276   1.264       .  A
C271        C437   1.491       .  S
C272        C482   1.498       .  S
C273        C981   1.477       .  S
C274        C645   1.493       .  S
C275        C450   1.491       .  S
C276        C466   1.468       .  S
Zn277       O281   1.959       .  S
Zn277       O282   2.003       .  S
Zn277       O286   2.032       .  S
Zn277       O293   2.068       .  S
Zn278      O1417   1.979   1_554  S
Zn278       O283   2.046       .  S
Zn278       O285   2.043       .  S
Zn278       O289   2.084       .  S
Zn279       O281   1.949       .  S
Zn279       O284   2.000       .  S
Zn279       O287   1.983       .  S
Zn279       O290   2.049       .  S
Zn280      O1417   1.915   1_554  S
Zn280       O288   1.958       .  S
Zn280       O291   1.951       .  S
Zn280       O292   1.977       .  S
O281      Zn1414   1.975       .  S
O281      Zn1416   1.913       .  S
O282        C294   1.273       .  A
O283       C1431   1.277   1_554  A
O284        C296   1.273       .  A
O285       C1430   1.276   1_554  A
O286        C296   1.276       .  A
O287        C295   1.270       .  A
O288        C297   1.267       .  A
O289        C298   1.281       .  A
O290       C1433   1.276       .  A
O291        C298   1.266       .  A
O292        C299   1.266       .  A
O293       C1435   1.280       .  A
C294       O1421   1.274       .  A
C294        C549   1.487       .  S
C295       O1419   1.275       .  A
C295        C741   1.495       .  S
C296        C402   1.484       .  S
C297       O1426   1.276   1_554  A
C297        C946   1.479       .  S
C298        C418   1.479       .  S
C299       O1429   1.278   1_554  A
C299        C517   1.487       .  S
Zn300       O304   1.964       .  S
Zn300       O305   2.028       .  S
Zn300       O309   1.997       .  S
Zn300       O316   2.074       .  S
Zn301       O304   1.961       .  S
Zn301       O306   1.991       .  S
Zn301       O308   2.013       .  S
Zn301       O312   2.055       .  S
Zn302       O304   1.992       .  S
Zn302       O307   2.059       .  S
Zn302       O310   2.054       .  S
Zn302       O313   2.101       .  S
Zn303       O304   1.924       .  S
Zn303       O311   1.937       .  S
Zn303       O314   1.976       .  S
Zn303       O315   1.976       .  S
O305        C317   1.277       .  A
O306        C318   1.271       .  A
O307        C319   1.279       .  A
O308        C317   1.274       .  A
O309        C319   1.271       .  A
O310        C318   1.277       .  A
O311        C320   1.265       .  A
O312        C321   1.277       .  A
O313        C320   1.283       .  A
O314        C321   1.266       .  A
O315        C322   1.266       .  A
O316        C322   1.279       .  A
C317        C421   1.490       .  S
C318        C613   1.489       .  S
C319        C821   1.484       .  S
C320        C405   1.483       .  S
C321        C453   1.484       .  S
C322        C866   1.487       .  S
Zn323       O327   1.913       .  S
Zn323       O328   1.964   1_655  S
Zn323       O332   1.910   1_655  S
Zn323       O339   1.952       .  S
Zn324       O327   1.957   1_455  S
Zn324       O329   2.007       .  S
Zn324       O331   2.075       .  S
Zn324       O335   2.013       .  S
Zn325       O327   1.981   1_455  S
Zn325       O330   2.081       .  S
Zn325       O333   2.048       .  S
Zn325       O336   2.077   1_455  S
Zn326       O327   1.954       .  S
Zn326       O334   1.984       .  S
Zn326       O337   1.991       .  S
Zn326       O338   2.029       .  S
O328        C340   1.264       .  A
O329        C341   1.273       .  A
O330        C342   1.281       .  A
O331        C340   1.279       .  A
O332        C342   1.261       .  A
O333        C341   1.278       .  A
O334        C343   1.270       .  A
O335        C344   1.277   1_455  A
O336        C343   1.280       .  A
O337        C344   1.271       .  A
O338        C345   1.273       .  A
O339        C345   1.263       .  A
C340        C930   1.488       .  S
C341        C802   1.495       .  S
C342        C386   1.479       .  S
C343        C594   1.506       .  S
C344        C370   1.482       .  S
C345        C501   1.472       .  S
Zn346       O350   1.950   1_655  S
Zn346       O351   1.972       .  S
Zn346       O355   2.005       .  S
Zn346       O362   2.028       .  S
Zn347       O350   1.977       .  S
Zn347       O352   2.032       .  S
Zn347       O354   2.058   1_455  S
Zn347       O358   2.073       .  S
Zn348       O350   1.946       .  S
Zn348       O353   2.004       .  S
Zn348       O356   1.982       .  S
Zn348       O359   2.047       .  S
Zn349       O350   1.910       .  S
Zn349       O357   1.960       .  S
Zn349       O360   1.928       .  S
Zn349       O361   1.946   1_455  S
O351        C363   1.268       .  A
O352        C364   1.276       .  A
O353        C365   1.273   1_455  A
O354        C363   1.278       .  A
O355        C365   1.273       .  A
O356        C364   1.270       .  A
O357        C366   1.264       .  A
O358        C367   1.280       .  A
O359        C366   1.276       .  A
O360        C367   1.262       .  A
O361        C368   1.263       .  A
O362        C368   1.274       .  A
C363        C434   1.497       .  S
C364        C853   1.481       .  S
C365        C373   1.484       .  S
C366        C725   1.477       .  S
C367        C389   1.472       .  S
C368        C533   1.471       .  S
C369        C370   1.400   1_455  A
C369        C374   1.399       .  A
C369        H376   1.085       .  S
C370        C371   1.422       .  A
C371        C372   1.405       .  A
C371        C378   1.510       .  S
C372        C373   1.403       .  A
C372        H377   1.085       .  S
C373        C374   1.420   1_655  A
C374        C375   1.508       .  S
C375        H379   1.111       .  S
C375        H380   1.110       .  S
C375        H381   1.109       .  S
C378        H382   1.111       .  S
C378        H383   1.110       .  S
C378        H384   1.111       .  S
C385        C386   1.413       .  A
C385       C1526   1.401   1_554  A
C385        H392   1.083       .  S
C386        C387   1.407   1_455  A
C387       C1524   1.401   1_554  A
C387        C394   1.507       .  S
C388        C389   1.406   1_655  A
C388       C1523   1.400       .  A
C388        H393   1.086       .  S
C389        C390   1.407       .  A
C390       C1521   1.405       .  A
C390        C391   1.507       .  S
C391        H395   1.111       .  S
C391        H396   1.111       .  S
C391        H397   1.110       .  S
C394        H398   1.110       .  S
C394        H399   1.111       .  S
C394        H400   1.111       .  S
C401        C402   1.411       .  A
C401        C406   1.411       .  A
C401        H408   1.083       .  S
C402        C403   1.412       .  A
C403        C404   1.400       .  A
C403        C410   1.509       .  S
C404        C405   1.407       .  A
C404        H409   1.084       .  S
C405        C406   1.411       .  A
C406        C407   1.505       .  S
C407        H411   1.111       .  S
C407        H412   1.110       .  S
C407        H413   1.110       .  S
C410        H414   1.108       .  S
C410        H415   1.111       .  S
C410        H416   1.110       .  S
C417        C418   1.406       .  A
C417        C422   1.404       .  A
C417        H424   1.085       .  S
C418        C419   1.409       .  A
C419        C420   1.408       .  A
C419        C426   1.506       .  S
C420        C421   1.411       .  A
C420        H425   1.084       .  S
C421        C422   1.416       .  A
C422        C423   1.508       .  S
C423        H427   1.111       .  S
C423        H428   1.110       .  S
C423        H429   1.110       .  S
C426        H430   1.109       .  S
C426        H431   1.111       .  S
C426        H432   1.111       .  S
C433        C434   1.412       .  A
C433        C438   1.404       .  A
C433        H440   1.083       .  S
C434        C435   1.417       .  A
C435        C436   1.406       .  A
C435        C442   1.508       .  S
C436        C437   1.409       .  A
C436        H441   1.084       .  S
C437        C438   1.415       .  A
C438        C439   1.509       .  S
C439        H443   1.111       .  S
C439        H444   1.110       .  S
C439        H445   1.110       .  S
C442        H446   1.110       .  S
C442        H447   1.110       .  S
C442        H448   1.111       .  S
C449        C450   1.405       .  A
C449        C454   1.403       .  A
C449        H456   1.086       .  S
C450        C451   1.422       .  A
C451        C452   1.406       .  A
C451        C458   1.509       .  S
C452        C453   1.402       .  A
C452        H457   1.086       .  S
C453        C454   1.417       .  A
C454        C455   1.510       .  S
C455        H459   1.111       .  S
C455        H460   1.110       .  S
C455        H461   1.109       .  S
C458        H462   1.109       .  S
C458        H463   1.111       .  S
C458        H464   1.111       .  S
C465        C466   1.402       .  A
C465        C470   1.404       .  A
C465        H472   1.085       .  S
C466        C467   1.406       .  A
C467        C468   1.404       .  A
C467        C474   1.507       .  S
C468        C469   1.413       .  A
C468        H473   1.083       .  S
C469        C470   1.420       .  A
C470        C471   1.509       .  S
C471        H475   1.111       .  S
C471        H476   1.110       .  S
C471        H477   1.110       .  S
C474        H478   1.110       .  S
C474        H479   1.111       .  S
C474        H480   1.111       .  S
C481        C482   1.412       .  A
C481        C486   1.403       .  A
C481        H488   1.084       .  S
C482        C483   1.424       .  A
C483        C484   1.407       .  A
C483        C490   1.509       .  S
C484        C485   1.401       .  A
C484        H489   1.086       .  S
C485        C486   1.406       .  A
C486        C487   1.507       .  S
C487        H491   1.111       .  S
C487        H492   1.110       .  S
C487        H493   1.110       .  S
C490        H494   1.110       .  S
C490        H495   1.110       .  S
C490        H496   1.111       .  S
C497        C498   1.398       .  A
C497        C502   1.400       .  A
C497        H504   1.084       .  S
C498        C499   1.421       .  A
C499        C500   1.399       .  A
C499        C506   1.511       .  S
C500        C501   1.398       .  A
C500        H505   1.084       .  S
C501        C502   1.420       .  A
C502        C503   1.510       .  S
C503        H507   1.111       .  S
C503        H508   1.109       .  S
C503        H509   1.110       .  S
C506        H510   1.109       .  S
C506        H511   1.110       .  S
C506        H512   1.111       .  S
C513        C514   1.404       .  A
C513        C518   1.406       .  A
C513        H520   1.086       .  S
C514        C515   1.423       .  A
C515        C516   1.406       .  A
C515       C1658   1.509       .  S
C516        C517   1.401       .  A
C516       H1657   1.086       .  S
C517        C518   1.420       .  A
C518        C519   1.509       .  S
C519        H523   1.111       .  S
C519        H524   1.110       .  S
C519        H525   1.109       .  S
H521       C1652   1.086       .  S
C522       C1651   1.510       .  S
C522        H526   1.110       .  S
C522        H527   1.109       .  S
C522        H528   1.111       .  S
C529        C530   1.397       .  A
C529        C534   1.398       .  A
C529        H536   1.084       .  S
C530        C531   1.421       .  A
C531        C532   1.399       .  A
C531        C538   1.511       .  S
C532        C533   1.397       .  A
C532        H537   1.083       .  S
C533        C534   1.421       .  A
C534        C535   1.509       .  S
C535        H539   1.111       .  S
C535        H540   1.109       .  S
C535        H541   1.110       .  S
C538        H542   1.109       .  S
C538        H543   1.110       .  S
C538        H544   1.111       .  S
C545        C546   1.403       .  A
C545        C550   1.406       .  A
C545        H552   1.083       .  S
C546        C547   1.418       .  A
C547        C548   1.402       .  A
C547        C554   1.510       .  S
C548        C549   1.404       .  A
C548        H553   1.083       .  S
C549        C550   1.420       .  A
C550       C1687   1.508       .  S
C551       C1686   1.508       .  S
C551        H555   1.111       .  S
C551        H556   1.110   1_556  S
C551        H557   1.111       .  S
C554        H558   1.109       .  S
C554        H559   1.110       .  S
C554        H560   1.111       .  S
C561        C562   1.410       .  A
C561        C566   1.402       .  A
C561        H568   1.083       .  S
C562        C563   1.425       .  A
C563        C564   1.407       .  A
C563        C570   1.509       .  S
C564        C565   1.399       .  A
C564        H569   1.084       .  S
C565        C566   1.408       .  A
C566        C567   1.508       .  S
C567        H571   1.111       .  S
C567        H572   1.110       .  S
C567        H573   1.110       .  S
C570        H574   1.110       .  S
C570        H575   1.110       .  S
C570        H576   1.111       .  S
C577        C578   1.407       .  A
C577        C582   1.401       .  A
C577        H584   1.085       .  S
C578        C579   1.409       .  A
C579        C580   1.408       .  A
C579        C586   1.505       .  S
C580        C581   1.411       .  A
C580        H585   1.084       .  S
C581        C582   1.412       .  A
C582        C583   1.509       .  S
C583        H587   1.111       .  S
C583        H588   1.111       .  S
C583        H589   1.109       .  S
C586        H590   1.110       .  S
C586        H591   1.111       .  S
C586        H592   1.111       .  S
C593        C594   1.414       .  A
C593        C598   1.407       .  A
C593        H600   1.084       .  S
C594        C595   1.417       .  A
C595        C596   1.410       .  A
C595        C602   1.508       .  S
C596        C597   1.413       .  A
C596        H601   1.084       .  S
C597        C598   1.416       .  A
C598        C599   1.509       .  S
C599        H603   1.111       .  S
C599        H604   1.111       .  S
C599        H605   1.109       .  S
C602        H606   1.111       .  S
C602        H607   1.109       .  S
C602        H608   1.111       .  S
C609        C610   1.407       .  A
C609        C614   1.409       .  A
C609        H616   1.084       .  S
C610        C611   1.421       .  A
C611        C612   1.404       .  A
C611        C618   1.510       .  S
C612        C613   1.404       .  A
C612        H617   1.084       .  S
C613        C614   1.417       .  A
C614        C615   1.508       .  S
C615        H619   1.111       .  S
C615        H620   1.109       .  S
C615        H621   1.111       .  S
C618        H622   1.109       .  S
C618        H623   1.110       .  S
C618        H624   1.111       .  S
C625        C626   1.407       .  A
C625        C630   1.413       .  A
C625        H632   1.084       .  S
C626        C627   1.417       .  A
C627        C628   1.406       .  A
C627        C634   1.509       .  S
C628        C629   1.409       .  A
C628        H633   1.084       .  S
C629        C630   1.419       .  A
C630        C631   1.507       .  S
C631        H635   1.110       .  S
C631        H636   1.110       .  S
C631        H637   1.110       .  S
C634        H638   1.110       .  S
C634        H639   1.109       .  S
C634        H640   1.111       .  S
C641        C642   1.402       .  A
C641        C646   1.406       .  A
C641        H648   1.085       .  S
C642        C643   1.421       .  A
C643        C644   1.403       .  A
C643        C650   1.510       .  S
C644        C645   1.403       .  A
C644        H649   1.085       .  S
C645        C646   1.424       .  A
C646        C647   1.510       .  S
C647        H651   1.111       .  S
C647        H652   1.111       .  S
C647        H653   1.109       .  S
C650        H654   1.110       .  S
C650        H655   1.109       .  S
C650        H656   1.111       .  S
C657        C658   1.413   1_565  A
C657        C662   1.407       .  A
C657        H664   1.084       .  S
C658        C659   1.406       .  A
C659        C660   1.402       .  A
C659        C666   1.507       .  S
C660        C661   1.413   1_545  A
C660        H665   1.084       .  S
C661        C662   1.409       .  A
C662        C663   1.506       .  S
C663        H667   1.111       .  S
C663        H668   1.109       .  S
C663        H669   1.112       .  S
C666        H670   1.110       .  S
C666        H671   1.110       .  S
C666        H672   1.110       .  S
C673        C674   1.401       .  A
C673        C678   1.400       .  A
C673        H680   1.084       .  S
C674        C675   1.420   1_565  A
C675        C676   1.403       .  A
C675        C682   1.510       .  S
C676        C677   1.401       .  A
C676        H681   1.084       .  S
C677        C678   1.419   1_545  A
C678        C679   1.511       .  S
C679        H683   1.110       .  S
C679        H684   1.109       .  S
C679        H685   1.111       .  S
C682        H686   1.111       .  S
C682        H687   1.110       .  S
C682        H688   1.111       .  S
C689        C690   1.403       .  A
C689        C694   1.401       .  A
C689        H696   1.083       .  S
C690        C691   1.414       .  A
C691        C692   1.404       .  A
C691       C1834   1.508       .  S
C692        C693   1.407       .  A
C692        H697   1.083       .  S
C693        C694   1.417       .  A
C694        C695   1.509       .  S
C695        H699   1.110       .  S
C695        H700   1.111       .  S
C695        H701   1.110       .  S
C698       C1827   1.507   1_554  S
C698        H702   1.111       .  S
C698        H703   1.109       .  S
C698        H704   1.111       .  S
C705        C706   1.404       .  A
C705        C710   1.400       .  A
C705        H712   1.096       .  S
C706        C707   1.415       .  A
C707        C708   1.407       .  A
C707       C1850   1.508       .  S
C708        C709   1.407       .  A
C708       H1849   1.094       .  S
C709        C710   1.417       .  A
C710        C711   1.511       .  S
C711        H715   1.112       .  S
C711        H716   1.110       .  S
C711        H717   1.109       .  S
H713       C1844   1.085       .  S
C714       C1843   1.507       .  S
C714        H718   1.112       .  S
C714        H719   1.109       .  S
C714        H720   1.111       .  S
C721        C722   1.403       .  A
C721        C726   1.401       .  A
C721        H728   1.085       .  S
C722        C723   1.420       .  A
C723        C724   1.405       .  A
C723        C730   1.510       .  S
C724        C725   1.402       .  A
C724        H729   1.086       .  S
C725        C726   1.416       .  A
C726        C727   1.509       .  S
C727        H731   1.111       .  S
C727        H732   1.109       .  S
C727        H733   1.110       .  S
C730        H734   1.111       .  S
C730        H735   1.109       .  S
C730        H736   1.111       .  S
C737        C738   1.411       .  A
C737        C742   1.403       .  A
C737        H744   1.084       .  S
C738        C739   1.416       .  A
C739        C740   1.404       .  A
C739        C746   1.509       .  S
C740        C741   1.411       .  A
C740        H745   1.083       .  S
C741        C742   1.417       .  A
C742        C743   1.509       .  S
C743        H747   1.111       .  S
C743        H748   1.109       .  S
C743        H749   1.111       .  S
C746        H750   1.110       .  S
C746        H751   1.110       .  S
C746        H752   1.111       .  S
C753        C754   1.408       .  A
C753        C758   1.400       .  A
C753       H1896   1.082       .  S
C754        C755   1.405       .  A
C755        C756   1.399       .  A
C755        C762   1.507       .  S
C756        C757   1.411       .  A
C756        H761   1.083       .  S
C757        C758   1.407       .  A
C758       C1895   1.506       .  S
C759       C1894   1.507       .  S
C759        H763   1.110       .  S
C759        H764   1.110       .  S
C759        H765   1.110       .  S
H760       C1889   1.081   1_554  S
C762        H766   1.110       .  S
C762        H767   1.110       .  S
C762        H768   1.111       .  S
C769        C770   1.408       .  A
C769        C774   1.401       .  A
C769        H776   1.083       .  S
C770        C771   1.413       .  A
C771        C772   1.401       .  A
C771        C778   1.509       .  S
C772        C773   1.407       .  A
C772        H777   1.083       .  S
C773        C774   1.412       .  A
C774        C775   1.508       .  S
C775        H779   1.111       .  S
C775        H780   1.110       .  S
C775        H781   1.109       .  S
C778        H782   1.109       .  S
C778        H783   1.111       .  S
C778        H784   1.111       .  S
C785        C786   1.408       .  A
C785        C790   1.400       .  A
C785        H792   1.087       .  S
C786        C787   1.407       .  A
C787        C788   1.404       .  A
C787        C794   1.506       .  S
C788        C789   1.409       .  A
C788        H793   1.086       .  S
C789        C790   1.407       .  A
C790        C791   1.507       .  S
C791        H795   1.111       .  S
C791        H796   1.110       .  S
C791        H797   1.111       .  S
C794        H798   1.111       .  S
C794        H799   1.109       .  S
C794        H800   1.111       .  S
C801        C802   1.411       .  A
C801        C806   1.410       .  A
C801        H808   1.085       .  S
C802        C803   1.414       .  A
C803        C804   1.404       .  A
C803        C810   1.509       .  S
C804        C805   1.413       .  A
C804        H809   1.085       .  S
C805        C806   1.417       .  A
C806        C807   1.507       .  S
C807        H811   1.111       .  S
C807        H812   1.110       .  S
C807        H813   1.110       .  S
C810        H814   1.109       .  S
C810        H815   1.111       .  S
C810        H816   1.111       .  S
C817        C818   1.410       .  A
C817        C822   1.405       .  A
C817        H824   1.083       .  S
C818        C819   1.420       .  A
C819        C820   1.410       .  A
C819        C826   1.507       .  S
C820        C821   1.404       .  A
C820        H825   1.084       .  S
C821        C822   1.413       .  A
C822        C823   1.509       .  S
C823        H827   1.111       .  S
C823        H828   1.110       .  S
C823        H829   1.109       .  S
C826        H830   1.109       .  S
C826        H831   1.111       .  S
C826        H832   1.111       .  S
C833        C834   1.406       .  A
C833        C838   1.409       .  A
C833        H840   1.084       .  S
C834        C835   1.418       .  A
C835        C836   1.416       .  A
C835        C842   1.506       .  S
C836        C837   1.410       .  A
C836        H841   1.083       .  S
C837        C838   1.421       .  A
C838        C839   1.509       .  S
C839        H843   1.111       .  S
C839        H844   1.110       .  S
C839        H845   1.110       .  S
C842        H846   1.110       .  S
C842        H847   1.110       .  S
C842        H848   1.111       .  S
C849        C850   1.411       .  A
C849        C854   1.402       .  A
C849        H856   1.084       .  S
C850        C851   1.413       .  A
C851        C852   1.403       .  A
C851        C858   1.508       .  S
C852        C853   1.408       .  A
C852        H857   1.081       .  S
C853        C854   1.410       .  A
C854        C855   1.508       .  S
C855        H859   1.111       .  S
C855        H860   1.109       .  S
C855        H861   1.111       .  S
C858        H862   1.111       .  S
C858        H863   1.109       .  S
C858        H864   1.111       .  S
C865        C866   1.402       .  A
C865        C870   1.409       .  A
C865        H872   1.086       .  S
C866        C867   1.418       .  A
C867        C868   1.407       .  A
C867        C874   1.509       .  S
C868        C869   1.404       .  A
C868        H873   1.085       .  S
C869        C870   1.424       .  A
C870        C871   1.509       .  S
C871        H875   1.111       .  S
C871        H876   1.110       .  S
C871        H877   1.109       .  S
C874        H878   1.108       .  S
C874        H879   1.111       .  S
C874        H880   1.111       .  S
C881        C882   1.401       .  A
C881        C886   1.407       .  A
C881        H888   1.085       .  S
C882        C883   1.422       .  A
C883        C884   1.407       .  A
C883        C890   1.510       .  S
C884        C885   1.405       .  A
C884        H889   1.084       .  S
C885        C886   1.426       .  A
C886        C887   1.510       .  S
C887        H891   1.111       .  S
C887        H892   1.109       .  S
C887        H893   1.111       .  S
C890        H894   1.110       .  S
C890        H895   1.110       .  S
C890        H896   1.111       .  S
C897        C898   1.413       .  A
C897        C902   1.403       .  A
C897        H904   1.086       .  S
C898        C899   1.406       .  A
C899        C900   1.403       .  A
C899        C906   1.506       .  S
C900        C901   1.413       .  A
C900        H905   1.086       .  S
C901        C902   1.406       .  A
C902        C903   1.506       .  S
C903        H907   1.111       .  S
C903        H908   1.109       .  S
C903        H909   1.111       .  S
C906        H910   1.110       .  S
C906        H911   1.111       .  S
C906        H912   1.111       .  S
C913        C914   1.409       .  A
C913        C918   1.401       .  A
C913        H920   1.083       .  S
C914        C915   1.416       .  A
C915        C916   1.401       .  A
C915        C922   1.509       .  S
C916        C917   1.407       .  A
C916        H921   1.083       .  S
C917        C918   1.414       .  A
C918        C919   1.509       .  S
C919        H923   1.111       .  S
C919        H924   1.110       .  S
C919        H925   1.109       .  S
C922        H926   1.109       .  S
C922        H927   1.110       .  S
C922        H928   1.111       .  S
C929        C930   1.401       .  A
C929        C934   1.407       .  A
C929        H936   1.085       .  S
C930        C931   1.420       .  A
C931        C932   1.406       .  A
C931        C938   1.509       .  S
C932        C933   1.403       .  A
C932        H937   1.085       .  S
C933        C934   1.426       .  A
C934        C935   1.510       .  S
C935        H939   1.111       .  S
C935        H940   1.111       .  S
C935        H941   1.110       .  S
C938        H942   1.109       .  S
C938        H943   1.110       .  S
C938        H944   1.110       .  S
C945        C946   1.406       .  A
C945        C950   1.396       .  A
C945        H952   1.085       .  S
C946        C947   1.415       .  A
C947        C948   1.407       .  A
C947        C954   1.506       .  S
C948        C949   1.403       .  A
C948        H953   1.085       .  S
C949        C950   1.407       .  A
C950        C951   1.509       .  S
C951        H955   1.111       .  S
C951        H956   1.109       .  S
C951        H957   1.110       .  S
C954        H959   1.110       .  S
C954        H960   1.111       .  S
C954       H2094   1.111   1_554  S
H958       C2090   1.111       .  S
C961        C962   1.400       .  A
C961        C966   1.403       .  A
C961        H968   1.085       .  S
C962        C963   1.417       .  A
C963        C964   1.402       .  A
C963       C2106   1.509       .  S
C964        C965   1.401       .  A
C964       H2105   1.085       .  S
C965        C966   1.420       .  A
C966        C967   1.509       .  S
C967        H971   1.111       .  S
C967        H972   1.108       .  S
C967        H973   1.111       .  S
H969       C2100   1.085       .  S
C970       C2099   1.510       .  S
C970        H974   1.109       .  S
C970        H976   1.111       .  S
C970       H2111   1.111       .  S
H975       C2106   1.109       .  S
C977        C978   1.411       .  A
C977        C982   1.402       .  A
C977        H984   1.084       .  S
C978        C979   1.410       .  A
C979        C980   1.403       .  A
C979        C986   1.507       .  S
C980        C981   1.409       .  A
C980        H985   1.084       .  S
C981        C982   1.408       .  A
C982        C983   1.507       .  S
C983        H987   1.111       .  S
C983        H988   1.111       .  S
C983        H989   1.110       .  S
C986        H990   1.110       .  S
C986        H991   1.110       .  S
C986        H992   1.111       .  S
C993        C994   1.410       .  A
C993        C998   1.406       .  A
C993       H1000   1.084       .  S
C994        C995   1.411       .  A
C995        C996   1.403       .  A
C995       C1002   1.508       .  S
C996        C997   1.413       .  A
C996       H1001   1.083       .  S
C997        C998   1.417       .  A
C998        C999   1.508       .  S
C999       H1003   1.111       .  S
C999       H1004   1.110       .  S
C999       H1005   1.110       .  S
C1002      H1006   1.110       .  S
C1002      H1007   1.110       .  S
C1002      H1008   1.110       .  S
C1009      C1010   1.407       .  A
C1009      C1014   1.409       .  A
C1009      H1016   1.084       .  S
C1010      C1011   1.407       .  A
C1011      C1012   1.405       .  A
C1011      C1018   1.506       .  S
C1012      C1013   1.411       .  A
C1012      H1017   1.084       .  S
C1013      C1014   1.413       .  A
C1014      C1015   1.506       .  S
C1015      H1019   1.111       .  S
C1015      H1020   1.110       .  S
C1015      H1021   1.110       .  S
C1018      H1022   1.111       .  S
C1018      H1023   1.109       .  S
C1018      H1024   1.110       .  S
C1025      C1026   1.410       .  A
C1025      C1030   1.401       .  A
C1025      H1032   1.083       .  S
C1026      C1027   1.409       .  A
C1027      C1028   1.405       .  A
C1027      C1034   1.506       .  S
C1028      C1029   1.409       .  A
C1028      H1033   1.083       .  S
C1029      C1030   1.408       .  A
C1030      C1031   1.507       .  S
C1031      H1035   1.111       .  S
C1031      H1036   1.109       .  S
C1031      H1037   1.111       .  S
C1034      H1038   1.110       .  S
C1034      H1039   1.110       .  S
C1034      H1040   1.111       .  S
C1041      C1042   1.413   1_565  A
C1041      C1046   1.404       .  A
C1041      H1048   1.085       .  S
C1042      C1043   1.406   1_655  A
C1043      C1044   1.403       .  A
C1043      C1050   1.506       .  S
C1044      C1045   1.413   1_545  A
C1044      H1049   1.085       .  S
C1045      C1046   1.407   1_455  A
C1046      C1047   1.506       .  S
C1047      H1051   1.111       .  S
C1047      H1052   1.110       .  S
C1047      H1053   1.110       .  S
C1050      H1054   1.110       .  S
C1050      H1055   1.111       .  S
C1050      H1056   1.111       .  S
C1057      C1058   1.405   1_455  A
C1057      C2198   1.399   1_554  A
C1057      H1064   1.082       .  S
C1058      C1059   1.420       .  A
C1059      C2196   1.402   1_554  A
C1059      C1066   1.510       .  S
C1060      C1061   1.408   1_565  A
C1060      C2195   1.404       .  A
C1060      H1065   1.083       .  S
C1061      C1062   1.413   1_655  A
C1062      C2193   1.401       .  A
C1062      C1063   1.509       .  S
C1063      H1067   1.110       .  S
C1063      H1068   1.110       .  S
C1063      H1069   1.109       .  S
C1066      H1070   1.110   1_565  S
C1066      H1071   1.111       .  S
C1066      H1072   1.111       .  S
C1073      C1074   1.404       .  A
C1073      C1078   1.408       .  A
C1073      H1080   1.085       .  S
C1074      C1075   1.423       .  A
C1075      C1076   1.404       .  A
C1075      C1082   1.510       .  S
C1076      C1077   1.400       .  A
C1076      H1081   1.084       .  S
C1077      C1078   1.420       .  A
C1078      C1079   1.509       .  S
C1079      H1083   1.111       .  S
C1079      H1084   1.109       .  S
C1079      H1085   1.111       .  S
C1082      H1086   1.110       .  S
C1082      H1087   1.109       .  S
C1082      H1088   1.111       .  S
C1089      C1090   1.412       .  A
C1089      C1094   1.403       .  A
C1089      H1096   1.084       .  S
C1090      C1091   1.413       .  A
C1091      C1092   1.402       .  A
C1091      C1098   1.507       .  S
C1092      C1093   1.406       .  A
C1092      H1097   1.085       .  S
C1093      C1094   1.407       .  A
C1094      C1095   1.507       .  S
C1095      H1099   1.111       .  S
C1095      H1100   1.111       .  S
C1095      H1101   1.110       .  S
C1098      H1102   1.110       .  S
C1098      H1103   1.110       .  S
C1098      H1104   1.111       .  S
C1105      C1106   1.408       .  A
C1105      C1110   1.403       .  A
C1105      H1112   1.084       .  S
C1106      C1107   1.409       .  A
C1107      C1108   1.403       .  A
C1107      C1114   1.507       .  S
C1108      C1109   1.409       .  A
C1108      H1113   1.084       .  S
C1109      C1110   1.410       .  A
C1110      C1111   1.507       .  S
C1111      H1115   1.111       .  S
C1111      H1116   1.110       .  S
C1111      H1117   1.110       .  S
C1114      H1118   1.110       .  S
C1114      H1119   1.111       .  S
C1114      H1120   1.111       .  S
C1121      C1122   1.407       .  A
C1121      C1126   1.413       .  A
C1121      H1128   1.084       .  S
C1122      C1123   1.420       .  A
C1123      C1124   1.406       .  A
C1123      C1130   1.510       .  S
C1124      C1125   1.405       .  A
C1124      H1129   1.085       .  S
C1125      C1126   1.417       .  A
C1126      C1127   1.507       .  S
C1127      H1131   1.111       .  S
C1127      H1132   1.109       .  S
C1127      H1133   1.111       .  S
C1130      H1134   1.109       .  S
C1130      H1135   1.110       .  S
C1130      H1136   1.111       .  S
Zn1137     O1141   1.955       .  S
Zn1137     O1142   1.990   1_565  S
Zn1137     O1146   2.048       .  S
Zn1137     O1153   2.011       .  S
Zn1138     O1141   1.993   1_545  S
Zn1138     O1143   2.094       .  S
Zn1138     O1145   2.058       .  S
Zn1138     O1149   2.077   1_655  S
Zn1139     O1141   1.917       .  S
Zn1139     O1144   1.966       .  S
Zn1139     O1147   1.907       .  S
Zn1139     O1150   1.965   1_655  S
Zn1140     O1141   1.950   1_455  S
Zn1140     O1148   2.056       .  S
Zn1140     O1151   1.993   1_565  S
Zn1140     O1152   2.004       .  S
O1142      C1154   1.269       .  A
O1143      C1155   1.283       .  A
O1144      C1156   1.266       .  A
O1145      C1154   1.279       .  A
O1146      C1156   1.275       .  A
O1147      C1155   1.260   1_565  A
O1148      C1157   1.276       .  A
O1149      C1158   1.280       .  A
O1150      C1157   1.266       .  A
O1151      C1158   1.272       .  A
O1152      C1159   1.275   1_455  A
O1153      C1159   1.274       .  A
C1154      C2210   1.487       .  S
C1155      C2178   1.479       .  S
C1156      C2226   1.484       .  S
C1157      C2242   1.486       .  S
C1158      C2261   1.496       .  S
C1159      C2194   1.481       .  S
Zn1160     O1164   1.950   1_645  S
Zn1160     O1165   2.000       .  S
Zn1160     O1169   1.983   1_545  S
Zn1160     O1176   2.056       .  S
Zn1161     O1164   1.950   1_545  S
Zn1161     O1166   1.984   1_545  S
Zn1161     O1168   1.982       .  S
Zn1161     O1172   2.049       .  S
Zn1162     O1164   1.983       .  S
Zn1162     O1167   2.068   1_455  S
Zn1162     O1170   2.064       .  S
Zn1162     O1173   2.101       .  S
Zn1163     O1164   1.903   1_545  S
Zn1163     O1171   1.901       .  S
Zn1163     O1174   1.940       .  S
Zn1163     O1175   1.947   1_455  S
O1165      C1177   1.274   1_655  A
O1166      C1178   1.269       .  A
O1167      C1179   1.280       .  A
O1168      C1177   1.269       .  A
O1169      C1179   1.270       .  A
O1170      C1178   1.280       .  A
O1171      C1180   1.259   1_545  A
O1172      C1181   1.274       .  A
O1173      C1180   1.284       .  A
O1174      C1181   1.262       .  A
O1175      C1182   1.263       .  A
O1176      C1182   1.275       .  A
C1177      C2197   1.488       .  S
C1178      C2146   1.477       .  S
C1179      C2133   1.493       .  S
C1180      C2181   1.479       .  S
C1181      C2162   1.469       .  S
C1182      C2114   1.469       .  S
Zn1183     O1187   1.914       .  S
Zn1183     O1188   1.964       .  S
Zn1183     O1192   1.966       .  S
Zn1184     O1187   1.948       .  S
Zn1184     O1189   2.000       .  S
Zn1184     O1191   2.048       .  S
Zn1184     O1195   1.995       .  S
Zn1185     O1187   1.945       .  S
Zn1185     O1190   2.044       .  S
Zn1185     O1193   1.985       .  S
Zn1185     O1196   1.961       .  S
Zn1186     O1187   1.991       .  S
Zn1186     O1194   2.072       .  S
Zn1186     O1197   2.076       .  S
Zn1186     O1198   2.103       .  S
O1188      C1200   1.265       .  A
O1189      C1201   1.272       .  A
O1190      C1202   1.273       .  A
O1191      C1200   1.277       .  A
O1192      C1202   1.266       .  A
O1193      C1201   1.273       .  A
O1194      C1203   1.281       .  A
O1195      C1204   1.270       .  A
O1196      C1203   1.265       .  A
O1197      C1204   1.280       .  A
O1199      C1205   1.261   1_554  A
C1200      C2098   1.480       .  S
C1201      C2053   1.484       .  S
C1202      C2085   1.486       .  S
C1203      C2069   1.492       .  S
C1204      C2258   1.494       .  S
C1205      C2037   1.483       .  S
Zn1206     O1210   1.985       .  S
Zn1206     O1211   2.079       .  S
Zn1206     O1215   2.069       .  S
Zn1206     O1222   2.092       .  S
Zn1207     O1210   1.950       .  S
Zn1207     O1212   1.995       .  S
Zn1207     O1214   1.993       .  S
Zn1207     O1218   2.045       .  S
Zn1208     O1210   1.948       .  S
Zn1208     O1213   1.978       .  S
Zn1208     O1216   1.990       .  S
Zn1208     O1219   2.031       .  S
Zn1209     O1210   1.918       .  S
Zn1209     O1217   1.966       .  S
Zn1209     O1220   1.976       .  S
Zn1209     O1221   1.920       .  S
O1211      C1223   1.283       .  A
O1212      C1224   1.272       .  A
O1213      C1225   1.266       .  A
O1214      C1223   1.269       .  A
O1215      C1225   1.280       .  A
O1216      C1224   1.273       .  A
O1217      C1226   1.266       .  A
O1218      C1227   1.274       .  A
O1219      C1226   1.273       .  A
O1220      C1227   1.268       .  A
O1221      C1228   1.262       .  A
O1222      C1228   1.284       .  A
C1223      C2005   1.500       .  S
C1224      C2050   1.481       .  S
C1225      C2021   1.496       .  S
C1226      C2165   1.479       .  S
C1227      C1986   1.496       .  S
C1228      C2034   1.485       .  S
Zn1229     O1233   1.923       .  S
Zn1229     O1234   1.910       .  S
Zn1229     O1238   1.965       .  S
Zn1229     O1245   1.969       .  S
Zn1230     O1233   1.994       .  S
Zn1230     O1235   2.097       .  S
Zn1230     O1237   2.119       .  S
Zn1230     O1241   2.081       .  S
Zn1231     O1233   1.961       .  S
Zn1231     O1236   2.055       .  S
Zn1231     O1239   1.994       .  S
Zn1231     O1242   1.999       .  S
Zn1232     O1233   1.962       .  S
Zn1232     O1240   2.010       .  S
Zn1232     O1243   2.002       .  S
Zn1232     O1244   2.068       .  S
O1234      C1246   1.261       .  A
O1235      C1247   1.283       .  A
O1236      C1248   1.276       .  A
O1237      C1246   1.287       .  A
O1238      C1248   1.265       .  A
O1239      C1247   1.271       .  A
O1240      C1249   1.274       .  A
O1241      C1250   1.281       .  A
O1242      C1249   1.274       .  A
O1243      C1250   1.272       .  A
O1244      C1251   1.277       .  A
O1245      C1251   1.267       .  A
C1246      C1922   1.485       .  S
C1247      C1970   1.501       .  S
C1248      C2245   1.477       .  S
C1249      C1906   1.482       .  S
C1250      C1954   1.500       .  S
C1251      C1941   1.499       .  S
Zn1252     O1256   1.948       .  S
Zn1252     O1257   1.984       .  S
Zn1252     O1261   2.055       .  S
Zn1252     O1268   2.015       .  S
Zn1253     O1256   1.982       .  S
Zn1253     O1258   2.075       .  S
Zn1253     O1260   2.038       .  S
Zn1253     O1264   2.062       .  S
Zn1254     O1256   1.912       .  S
Zn1254     O1259   1.964       .  S
Zn1254     O1265   1.951       .  S
Zn1255     O1256   1.949       .  S
Zn1255     O1263   2.041       .  S
Zn1255     O1266   1.993       .  S
Zn1255     O1267   2.004       .  S
O1257      C1269   1.269       .  A
O1259      C1271   1.266       .  A
O1260      C1269   1.277       .  A
O1261      C1271   1.276       .  A
O1262      C1270   1.262       .  A
O1263      C1272   1.275       .  A
O1264      C1273   1.278       .  A
O1265      C1272   1.265       .  A
O1266      C1273   1.271       .  A
O1267      C1274   1.273       .  A
O1268      C1274   1.276       .  A
C1269      C1858   1.478       .  S
C1270      C1925   1.484       .  S
C1271      C1874   1.491       .  S
C1272      C1890   1.474       .  S
C1273      C2149   1.493       .  S
C1274      C1909   1.485       .  S
Zn1275     O1279   1.983   1_546  S
Zn1275     O1280   2.084       .  S
Zn1275     O1284   2.055   1_556  S
Zn1275     O1291   2.050   1_556  S
Zn1276     O1279   1.907   1_556  S
Zn1276     O1281   1.959       .  S
Zn1276     O1283   1.920       .  S
Zn1276     O1287   1.945       .  S
Zn1277     O1282   1.992   1_565  S
Zn1277     O1285   2.039       .  S
Zn1277     O1288   2.002       .  S
Zn1278     O1286   2.004       .  S
Zn1278     O1289   2.034       .  S
Zn1278     O1290   1.964   1_565  S
O1280      C1292   1.281       .  A
O1281      C1293   1.267       .  A
O1282      C1294   1.271       .  A
O1283      C1292   1.260   1_565  A
O1286      C1295   1.274       .  A
O1287      C1296   1.264       .  A
O1288      C1295   1.273       .  A
O1290      C1297   1.266       .  A
C1292      C1794   1.472       .  S
C1293      C1826   1.483       .  S
C1294      C1842   1.488       .  S
C1295      C1810   1.481       .  S
C1296      C1893   1.471       .  S
C1297      C2101   1.482       .  S
Zn1298     O1302   1.959       .  S
Zn1298     O1303   2.010   1_545  S
Zn1298     O1307   2.006       .  S
Zn1298     O1314   2.067       .  S
Zn1299     O1302   1.994   1_565  S
Zn1299     O1304   2.075       .  S
Zn1299     O1306   2.078       .  S
Zn1299     O1310   2.097       .  S
Zn1300     O1302   1.960       .  S
Zn1300     O1305   1.997       .  S
Zn1300     O1308   1.991   1_545  S
Zn1300     O1311   2.056       .  S
Zn1301     O1302   1.927       .  S
Zn1301     O1309   1.975       .  S
Zn1301     O1312   1.922       .  S
Zn1301     O1313   1.975       .  S
O1303      C1315   1.272       .  A
O1304      C1316   1.280       .  A
O1305      C1317   1.273       .  A
O1306      C1315   1.280       .  A
O1307      C1317   1.274       .  A
O1308      C1316   1.270       .  A
O1309      C1318   1.265       .  A
O1310      C1319   1.285       .  A
O1311      C1318   1.276       .  A
O1312      C1319   1.263   1_545  A
O1313      C1320   1.265       .  A
O1314      C1320   1.279       .  A
C1315      C1973   1.500       .  S
C1316      C1762   1.490       .  S
C1317      C1813   1.477       .  S
C1318      C1778   1.484       .  S
C1319      C1797   1.475       .  S
C1320      C2018   1.491       .  S
Zn1321     O1325   1.916       .  S
Zn1321     O1326   1.983       .  S
Zn1321     O1330   1.957       .  S
Zn1321     O1337   1.927       .  S
Zn1322     O1325   1.961       .  S
Zn1322     O1327   2.020       .  S
Zn1322     O1329   2.088       .  S
Zn1322     O1333   2.003       .  S
Zn1323     O1325   1.964       .  S
Zn1323     O1328   2.067       .  S
Zn1323     O1331   2.020       .  S
Zn1323     O1334   2.007       .  S
Zn1324     O1325   1.990       .  S
Zn1324     O1332   2.062       .  S
Zn1324     O1335   2.053       .  S
Zn1324     O1336   2.089       .  S
O1326      C1338   1.268       .  A
O1327      C1339   1.275       .  A
O1328      C1340   1.279       .  A
O1329      C1338   1.280       .  A
O1330      C1340   1.266       .  A
O1331      C1339   1.277       .  A
O1332      C1341   1.278       .  A
O1333      C1342   1.272       .  A
O1334      C1341   1.273       .  A
O1335      C1342   1.278       .  A
O1336      C1343   1.281       .  A
O1337      C1343   1.263       .  A
C1338      C1733   1.509       .  S
C1339      C1698   1.497       .  S
C1340      C2229   1.481       .  S
C1341      C1765   1.499       .  S
C1342      C1746   1.484       .  S
C1343      C1714   1.474       .  S
Zn1344     O1348   1.950       .  S
Zn1344     O1349   2.028       .  S
Zn1344     O1353   1.979       .  S
Zn1344     O1360   2.003       .  S
Zn1345     O1348   1.906       .  S
Zn1345     O1350   1.929       .  S
Zn1345     O1352   1.933       .  S
Zn1345     O1356   1.965       .  S
Zn1346     O1348   1.978       .  S
Zn1346     O1351   2.063       .  S
Zn1346     O1354   2.082       .  S
Zn1346     O1357   2.028       .  S
Zn1347     O1348   1.960       .  S
Zn1347     O1355   1.985       .  S
Zn1347     O1358   2.081       .  S
Zn1347     O1359   2.026       .  S
O1349      C1361   1.274       .  A
O1350      C1362   1.261       .  A
O1351      C1363   1.278       .  A
O1352      C1361   1.261       .  A
O1353      C1363   1.267       .  A
O1354      C1362   1.279       .  A
O1355      C1364   1.272       .  A
O1356      C1365   1.266       .  A
O1357      C1364   1.277       .  A
O1358      C1365   1.280       .  A
C1361      C1666   1.468       .  S
C1362      C1701   1.469       .  S
C1363      C1682   1.485       .  S
C1364      C1829   1.474       .  S
C1365      C2130   1.502       .  S
C1366      C1717   1.489       .  S
Zn1367     O1371   1.923       .  S
Zn1367     O1372   1.967       .  S
Zn1367     O1376   1.971       .  S
Zn1367     O1383   1.929       .  S
Zn1368     O1371   1.958       .  S
Zn1368     O1373   2.001       .  S
Zn1368     O1375   2.052       .  S
Zn1368     O1379   1.974       .  S
Zn1369     O1371   1.952       .  S
Zn1369     O1374   2.068       .  S
Zn1369     O1377   2.023       .  S
Zn1369     O1380   2.002       .  S
Zn1370     O1371   1.992       .  S
Zn1370     O1378   2.072       .  S
Zn1370     O1381   2.054       .  S
Zn1370     O1382   2.085       .  S
O1372      C1384   1.265       .  A
O1374      C1386   1.279       .  A
O1375      C1384   1.275       .  A
O1376      C1386   1.266       .  A
O1378      C1387   1.280       .  A
O1379      C1388   1.268       .  A
O1380      C1387   1.271       .  A
O1381      C1388   1.279       .  A
O1382      C1389   1.281       .  A
O1383      C1389   1.262       .  A
C1384      C1634   1.477       .  S
C1385      C1605   1.487       .  S
C1386      C2213   1.484       .  S
C1387      C1845   1.503       .  S
C1388      C1650   1.480       .  S
C1389      C1621   1.467       .  S
Zn1390     O1394   1.918       .  S
Zn1390     O1395   1.977       .  S
Zn1390     O1399   1.962       .  S
Zn1390     O1406   1.931       .  S
Zn1391     O1394   1.952       .  S
Zn1391     O1396   2.010       .  S
Zn1391     O1398   2.055       .  S
Zn1391     O1402   1.999       .  S
Zn1392     O1394   1.960       .  S
Zn1392     O1397   2.050       .  S
Zn1392     O1400   2.013       .  S
Zn1392     O1403   1.992       .  S
Zn1393     O1394   1.976       .  S
Zn1393     O1401   2.046       .  S
Zn1393     O1404   2.047       .  S
Zn1393     O1405   2.065       .  S
O1395      C1407   1.268       .  A
O1396      C1408   1.273       .  A
O1397      C1409   1.276       .  A
O1398      C1407   1.277       .  A
O1399      C1409   1.267       .  A
O1400      C1408   1.276       .  A
O1401      C1410   1.278       .  A
O1402      C1411   1.270       .  A
O1403      C1410   1.268       .  A
O1404      C1411   1.279       .  A
O1405      C1412   1.278       .  A
O1406      C1412   1.262       .  A
C1407      C1573   1.494       .  S
C1408      C1618   1.497       .  S
C1409      C2117   1.483       .  S
C1410      C1781   1.493       .  S
C1411      C1586   1.495       .  S
C1412      C1602   1.463       .  S
Zn1413     O1417   1.954       .  S
Zn1413     O1418   1.994       .  S
Zn1413     O1422   2.010       .  S
Zn1413     O1429   2.062       .  S
Zn1414     O1419   2.032       .  S
Zn1414     O1421   2.022       .  S
Zn1414     O1425   2.064       .  S
Zn1415     O1417   1.963       .  S
Zn1415     O1420   2.010       .  S
Zn1415     O1423   1.992       .  S
Zn1415     O1426   2.046       .  S
Zn1416     O1424   1.969       .  S
Zn1416     O1427   1.920       .  S
Zn1416     O1428   1.962       .  S
O1418      C1430   1.273       .  A
O1420      C1432   1.273       .  A
O1422      C1432   1.274       .  A
O1423      C1431   1.270       .  A
O1424      C1433   1.266       .  A
O1425      C1434   1.277       .  A
O1427      C1434   1.261       .  A
O1428      C1435   1.265       .  A
C1430      C1685   1.494       .  S
C1431      C1877   1.490       .  S
C1432      C1538   1.486       .  S
C1433      C2082   1.480       .  S
C1434      C1554   1.461       .  S
C1435      C1653   1.487       .  S
Zn1436     O1440   1.956       .  S
Zn1436     O1441   2.001       .  S
Zn1436     O1445   2.012       .  S
Zn1436     O1452   2.074       .  S
Zn1437     O1440   1.965       .  S
Zn1437     O1442   1.995       .  S
Zn1437     O1444   1.998       .  S
Zn1437     O1448   2.063       .  S
Zn1438     O1440   1.988       .  S
Zn1438     O1443   2.068       .  S
Zn1438     O1446   2.059       .  S
Zn1438     O1449   2.078       .  S
Zn1439     O1440   1.925       .  S
Zn1439     O1447   1.929       .  S
Zn1439     O1450   1.982       .  S
Zn1439     O1451   1.986       .  S
O1441      C1453   1.276       .  A
O1442      C1454   1.271       .  A
O1443      C1455   1.279       .  A
O1444      C1453   1.272       .  A
O1445      C1455   1.271       .  A
O1446      C1454   1.277       .  A
O1447      C1456   1.264       .  A
O1448      C1457   1.277       .  A
O1449      C1456   1.282       .  A
O1450      C1457   1.266       .  A
O1451      C1458   1.267       .  A
O1452      C1458   1.280       .  A
C1453      C1557   1.487       .  S
C1454      C1749   1.502       .  S
C1455      C1957   1.497       .  S
C1456      C1541   1.467       .  S
C1457      C1589   1.489       .  S
C1458      C2002   1.492       .  S
Zn1459     O1463   1.913       .  S
Zn1459     O1464   1.962       .  S
Zn1459     O1468   1.930       .  S
Zn1459     O1475   1.955   1_455  S
Zn1460     O1463   1.952       .  S
Zn1460     O1465   1.995       .  S
Zn1460     O1467   2.057       .  S
Zn1460     O1471   1.996       .  S
Zn1461     O1463   1.972       .  S
Zn1461     O1466   2.082       .  S
Zn1461     O1469   2.050       .  S
Zn1461     O1472   2.077   1_455  S
Zn1462     O1463   1.957   1_655  S
Zn1462     O1470   2.000       .  S
Zn1462     O1473   2.018       .  S
Zn1462     O1474   2.064       .  S
O1464      C1476   1.263       .  A
O1465      C1477   1.272       .  A
O1466      C1478   1.283       .  A
O1467      C1476   1.277       .  A
O1468      C1478   1.263       .  A
O1469      C1477   1.278       .  A
O1470      C1479   1.271       .  A
O1471      C1480   1.273       .  A
O1472      C1479   1.280       .  A
O1473      C1480   1.276   1_655  A
O1474      C1481   1.279       .  A
O1475      C1481   1.263       .  A
C1476      C2066   1.485       .  S
C1477      C1938   1.501       .  S
C1478      C1522   1.475       .  S
C1479      C1730   1.505       .  S
C1480      C1506   1.482       .  S
C1481      C1637   1.490       .  S
Zn1482     O1486   1.939   1_655  S
Zn1482     O1487   1.974       .  S
Zn1482     O1491   1.992       .  S
Zn1482     O1498   2.023       .  S
Zn1483     O1486   1.973       .  S
Zn1483     O1488   2.033       .  S
Zn1483     O1490   2.055   1_455  S
Zn1483     O1494   2.071       .  S
Zn1484     O1486   1.949       .  S
Zn1484     O1489   2.021       .  S
Zn1484     O1492   1.995       .  S
Zn1484     O1495   2.053       .  S
Zn1485     O1486   1.910   1_655  S
Zn1485     O1493   1.962   1_655  S
Zn1485     O1496   1.926   1_655  S
Zn1485     O1497   1.944       .  S
O1487      C1499   1.269       .  A
O1488      C1500   1.276       .  A
O1489      C1501   1.275       .  A
O1490      C1499   1.277       .  A
O1491      C1501   1.273   1_655  A
O1492      C1500   1.272       .  A
O1493      C1502   1.265       .  A
O1494      C1503   1.280       .  A
O1495      C1502   1.277       .  A
O1496      C1503   1.262       .  A
O1497      C1504   1.263       .  A
O1498      C1504   1.273       .  A
C1499      C1570   1.498       .  S
C1500      C1989   1.497       .  S
C1501      C1509   1.481       .  S
C1502      C1861   1.479       .  S
C1503      C1525   1.481       .  S
C1504      C1669   1.468       .  S
C1505      C1506   1.410       .  A
C1505      C1510   1.404       .  A
C1505      H1512   1.085       .  S
C1506      C1507   1.411   1_455  A
C1507      C1508   1.401       .  A
C1507      C1514   1.508       .  S
C1508      C1509   1.408   1_655  A
C1508      H1513   1.085       .  S
C1509      C1510   1.412       .  A
C1510      C1511   1.508       .  S
C1511      H1515   1.111       .  S
C1511      H1516   1.109       .  S
C1511      H1517   1.111       .  S
C1514      H1518   1.111       .  S
C1514      H1519   1.109       .  S
C1514      H1520   1.110       .  S
C1521      C1522   1.411       .  A
C1521      H1528   1.086       .  S
C1522      C1523   1.408   1_455  A
C1523      C1530   1.507       .  S
C1524      C1525   1.413   1_655  A
C1524      H1529   1.080       .  S
C1525      C1526   1.407       .  A
C1526      C1527   1.507       .  S
C1527      H1531   1.111       .  S
C1527      H1532   1.110       .  S
C1527      H1533   1.110       .  S
C1530      H1534   1.109       .  S
C1530      H1535   1.110       .  S
C1530      H1536   1.111       .  S
C1537      C1538   1.403       .  A
C1537      C1542   1.401       .  A
C1537      H1544   1.083       .  S
C1538      C1539   1.424       .  A
C1539      C1540   1.405       .  A
C1539      C1546   1.506       .  S
C1540      C1541   1.396       .  A
C1540      H1545   1.083       .  S
C1541      C1542   1.415       .  A
C1542      C1543   1.510       .  S
C1543      H1547   1.111       .  S
C1543      H1548   1.110       .  S
C1543      H1549   1.110       .  S
C1546      H1550   1.110       .  S
C1546      H1551   1.110       .  S
C1546      H1552   1.111       .  S
C1553      C1554   1.398       .  A
C1553      C1558   1.406       .  A
C1553      H1560   1.084       .  S
C1554      C1555   1.410       .  A
C1555      C1556   1.397       .  A
C1555      C1562   1.510       .  S
C1556      C1557   1.405       .  A
C1556      H1561   1.084       .  S
C1557      C1558   1.426       .  A
C1558      C1559   1.509       .  S
C1559      H1563   1.111       .  S
C1559      H1564   1.110       .  S
C1559      H1565   1.111       .  S
C1562      H1566   1.109       .  S
C1562      H1567   1.110       .  S
C1562      H1568   1.111       .  S
C1569      C1570   1.412       .  A
C1569      C1574   1.404       .  A
C1569      H1576   1.083       .  S
C1570      C1571   1.417       .  A
C1571      C1572   1.407       .  A
C1571      C1578   1.508       .  S
C1572      C1573   1.411       .  A
C1572      H1577   1.084       .  S
C1573      C1574   1.415       .  A
C1574      C1575   1.509       .  S
C1575      H1579   1.111       .  S
C1575      H1580   1.110       .  S
C1575      H1581   1.110       .  S
C1578      H1582   1.111       .  S
C1578      H1583   1.110       .  S
C1578      H1584   1.111       .  S
C1585      C1586   1.405       .  A
C1585      C1590   1.404       .  A
C1585      H1592   1.086       .  S
C1586      C1587   1.423       .  A
C1587      C1588   1.409       .  A
C1587      C1594   1.509       .  S
C1588      C1589   1.403       .  A
C1588      H1593   1.086       .  S
C1589      C1590   1.418       .  A
C1590      C1591   1.510       .  S
C1591      H1595   1.111       .  S
C1591      H1596   1.110       .  S
C1591      H1597   1.109       .  S
C1594      H1598   1.110       .  S
C1594      H1599   1.111       .  S
C1594      H1600   1.111       .  S
C1601      C1602   1.402       .  A
C1601      C1606   1.403       .  A
C1601      H1608   1.085       .  S
C1602      C1603   1.405       .  A
C1603      C1604   1.401       .  A
C1603      C1610   1.507       .  S
C1604      C1605   1.411       .  A
C1604      H1609   1.084       .  S
C1605      C1606   1.419       .  A
C1606      C1607   1.509       .  S
C1607      H1611   1.111       .  S
C1607      H1612   1.109       .  S
C1607      H1613   1.110       .  S
C1610      H1614   1.109       .  S
C1610      H1615   1.111       .  S
C1610      H1616   1.111       .  S
C1617      C1618   1.413       .  A
C1617      C1622   1.404       .  A
C1617      H1624   1.081       .  S
C1618      C1619   1.424       .  A
C1619      C1620   1.405       .  A
C1619      C1626   1.509       .  S
C1620      C1621   1.401       .  A
C1620      H1625   1.082       .  S
C1621      C1622   1.407       .  A
C1622      C1623   1.507       .  S
C1623      H1627   1.111       .  S
C1623      H1628   1.111       .  S
C1623      H1629   1.110       .  S
C1626      H1630   1.110       .  S
C1626      H1631   1.110       .  S
C1626      H1632   1.111       .  S
C1633      C1634   1.397       .  A
C1633      C1638   1.405       .  A
C1633      H1640   1.084       .  S
C1634      C1635   1.418       .  A
C1635      C1636   1.403       .  A
C1635      C1642   1.510       .  S
C1636      C1637   1.402       .  A
C1636      H1641   1.084       .  S
C1637      C1638   1.428       .  A
C1638      C1639   1.511       .  S
C1639      H1643   1.111       .  S
C1639      H1644   1.110       .  S
C1639      H1645   1.110       .  S
C1642      H1646   1.108       .  S
C1642      H1647   1.111       .  S
C1642      H1648   1.111       .  S
C1649      C1650   1.397       .  A
C1649      C1654   1.404       .  A
C1649      H1656   1.087       .  S
C1650      C1651   1.420       .  A
C1651      C1652   1.403       .  A
C1652      C1653   1.400       .  A
C1653      C1654   1.426       .  A
C1654      C1655   1.511       .  S
C1655      H1659   1.112       .  S
C1655      H1660   1.109       .  S
C1655      H1661   1.111       .  S
C1658      H1662   1.109       .  S
C1658      H1663   1.110       .  S
C1658      H1664   1.111       .  S
C1665      C1666   1.396       .  A
C1665      C1670   1.397       .  A
C1665      H1672   1.083       .  S
C1666      C1667   1.422       .  A
C1667      C1668   1.399       .  A
C1667      C1674   1.511       .  S
C1668      C1669   1.396       .  A
C1668      H1673   1.083       .  S
C1669      C1670   1.420       .  A
C1670      C1671   1.509       .  S
C1671      H1675   1.111       .  S
C1671      H1676   1.107       .  S
C1671      H1677   1.111       .  S
C1674      H1678   1.109       .  S
C1674      H1679   1.110       .  S
C1674      H1680   1.111       .  S
C1681      C1682   1.404       .  A
C1681      C1686   1.410       .  A
C1681      H1688   1.083       .  S
C1682      C1683   1.416       .  A
C1683      C1684   1.401       .  A
C1683      C1690   1.510       .  S
C1684      C1685   1.407       .  A
C1684      H1689   1.083       .  S
C1685      C1686   1.421       .  A
C1687      H1691   1.110       .  S
C1687      H1692   1.110       .  S
C1687      H1693   1.111       .  S
C1690      H1694   1.108       .  S
C1690      H1695   1.110       .  S
C1690      H1696   1.111       .  S
C1697      C1698   1.413       .  A
C1697      C1702   1.406       .  A
C1697      H1704   1.083       .  S
C1698      C1699   1.422       .  A
C1699      C1700   1.405       .  A
C1699      C1706   1.509       .  S
C1700      C1701   1.402       .  A
C1700      H1705   1.085       .  S
C1701      C1702   1.406       .  A
C1702      C1703   1.507       .  S
C1703      H1707   1.110       .  S
C1703      H1708   1.110       .  S
C1703      H1709   1.111       .  S
C1706      H1710   1.110       .  S
C1706      H1711   1.110       .  S
C1706      H1712   1.111       .  S
C1713      C1714   1.404       .  A
C1713      C1718   1.401       .  A
C1713      H1720   1.085       .  S
C1714      C1715   1.408       .  A
C1715      C1716   1.408       .  A
C1715      C1722   1.506       .  S
C1716      C1717   1.412       .  A
C1716      H1721   1.084       .  S
C1717      C1718   1.416       .  A
C1718      C1719   1.509       .  S
C1719      H1723   1.111       .  S
C1719      H1724   1.111       .  S
C1719      H1725   1.109       .  S
C1722      H1726   1.111       .  S
C1722      H1727   1.110       .  S
C1722      H1728   1.111       .  S
C1729      C1730   1.414       .  A
C1729      C1734   1.411       .  A
C1729      H1736   1.084       .  S
C1730      C1731   1.415       .  A
C1731      C1732   1.410       .  A
C1731      C1738   1.508       .  S
C1732      C1733   1.416       .  A
C1732      H1737   1.084       .  S
C1733      C1734   1.417       .  A
C1734      C1735   1.507       .  S
C1735      H1739   1.111       .  S
C1735      H1740   1.110       .  S
C1735      H1741   1.110       .  S
C1738      H1742   1.111       .  S
C1738      H1743   1.109       .  S
C1738      H1744   1.111       .  S
C1745      C1746   1.404       .  A
C1745      C1750   1.411       .  A
C1745      H1752   1.085       .  S
C1746      C1747   1.411       .  A
C1747      C1748   1.403       .  A
C1747      C1754   1.509       .  S
C1748      C1749   1.411       .  A
C1748      H1753   1.084       .  S
C1749      C1750   1.423       .  A
C1750      C1751   1.507       .  S
C1751      H1755   1.111       .  S
C1751      H1756   1.110       .  S
C1751      H1757   1.110       .  S
C1754      H1758   1.109       .  S
C1754      H1759   1.111       .  S
C1754      H1760   1.111       .  S
C1761      C1762   1.405       .  A
C1761      C1766   1.412       .  A
C1761      H1768   1.084       .  S
C1762      C1763   1.416       .  A
C1763      C1764   1.405       .  A
C1763      C1770   1.509       .  S
C1764      C1765   1.408       .  A
C1764      H1769   1.084       .  S
C1765      C1766   1.421       .  A
C1766      C1767   1.507       .  S
C1767      H1771   1.111       .  S
C1767      H1772   1.110       .  S
C1767      H1773   1.111       .  S
C1770      H1774   1.110       .  S
C1770      H1775   1.109       .  S
C1770      H1776   1.110       .  S
C1777      C1778   1.402       .  A
C1777      C1782   1.408       .  A
C1777      H1784   1.086       .  S
C1778      C1779   1.417       .  A
C1779      C1780   1.404       .  A
C1779      C1786   1.510       .  S
C1780      C1781   1.405       .  A
C1780      H1785   1.085       .  S
C1781      C1782   1.423       .  A
C1782      C1783   1.509       .  S
C1783      H1787   1.111       .  S
C1783      H1788   1.110       .  S
C1783      H1789   1.110       .  S
C1786      H1790   1.108       .  S
C1786      H1791   1.110       .  S
C1786      H1792   1.111       .  S
C1793      C1794   1.409   1_565  A
C1793      C1798   1.404       .  A
C1793      H1800   1.085       .  S
C1794      C1795   1.406       .  A
C1795      C1796   1.403       .  A
C1795      C1802   1.506       .  S
C1796      C1797   1.410   1_545  A
C1796      H1801   1.084       .  S
C1797      C1798   1.408       .  A
C1798      C1799   1.506       .  S
C1799      H1803   1.111       .  S
C1799      H1804   1.110       .  S
C1799      H1805   1.111       .  S
C1802      H1806   1.111       .  S
C1802      H1807   1.110       .  S
C1802      H1808   1.110       .  S
C1809      C1810   1.402       .  A
C1809      C1814   1.402       .  A
C1809      H1816   1.084       .  S
C1810      C1811   1.421   1_565  A
C1811      C1812   1.402       .  A
C1811      C1818   1.510       .  S
C1812      C1813   1.400       .  A
C1812      H1817   1.084       .  S
C1813      C1814   1.418   1_545  A
C1814      C1815   1.510       .  S
C1815      H1819   1.110       .  S
C1815      H1820   1.109       .  S
C1815      H1821   1.112       .  S
C1818      H1822   1.111       .  S
C1818      H1823   1.110       .  S
C1818      H1824   1.111       .  S
C1825      C1826   1.410       .  A
C1825      C1830   1.399       .  A
C1825      H1832   1.083       .  S
C1826      C1827   1.413       .  A
C1827      C1828   1.404       .  A
C1828      C1829   1.408       .  A
C1828      H1833   1.083       .  S
C1829      C1830   1.408       .  A
C1830      C1831   1.508       .  S
C1831      H1835   1.110       .  S
C1831      H1836   1.109       .  S
C1831      H1837   1.110       .  S
C1834      H1838   1.110       .  S
C1834      H1839   1.110       .  S
C1834      H1840   1.111       .  S
C1841      C1842   1.400       .  A
C1841      C1846   1.405       .  A
C1841      H1848   1.087       .  S
C1842      C1843   1.415       .  A
C1843      C1844   1.413       .  A
C1844      C1845   1.411       .  A
C1845      C1846   1.424       .  A
C1846      C1847   1.510       .  S
C1847      H1851   1.111       .  S
C1847      H1852   1.110       .  S
C1847      H1853   1.110       .  S
C1850      H1854   1.110       .  S
C1850      H1855   1.109       .  S
C1850      H1856   1.112       .  S
C1857      C1858   1.402       .  A
C1857      C1862   1.402       .  A
C1857      H1864   1.085       .  S
C1858      C1859   1.416       .  A
C1859      C1860   1.404       .  A
C1859      C1866   1.509       .  S
C1860      C1861   1.403       .  A
C1860      H1865   1.085       .  S
C1861      C1862   1.417       .  A
C1862      C1863   1.509       .  S
C1863      H1867   1.111       .  S
C1863      H1868   1.109       .  S
C1863      H1869   1.110       .  S
C1866      H1870   1.112       .  S
C1866      H1871   1.108       .  S
C1866      H1872   1.111       .  S
C1873      C1874   1.412       .  A
C1873      C1878   1.403       .  A
C1873      H1880   1.083       .  S
C1874      C1875   1.413       .  A
C1875      C1876   1.406       .  A
C1875      C1882   1.507       .  S
C1876      C1877   1.411       .  A
C1876      H1881   1.080       .  S
C1877      C1878   1.412       .  A
C1878      C1879   1.508   1_556  S
C1879      H1883   1.111       .  S
C1879      H1884   1.109       .  S
C1879      H1885   1.111       .  S
C1882      H1886   1.111       .  S
C1882      H1887   1.109       .  S
C1882      H1888   1.110       .  S
C1889      C1890   1.410       .  A
C1889      C1894   1.401   1_556  A
C1890      C1891   1.408       .  A
C1891      C1892   1.400       .  A
C1891      C1898   1.507       .  S
C1892      C1893   1.409       .  A
C1892      H1897   1.083       .  S
C1893      C1894   1.407   1_556  A
C1895      H1899   1.111       .  S
C1895      H1900   1.109       .  S
C1895      H1901   1.110       .  S
C1898      H1902   1.110       .  S
C1898      H1903   1.110       .  S
C1898      H1904   1.111       .  S
C1905      C1906   1.402       .  A
C1905      C1910   1.402       .  A
C1905      H1912   1.083       .  S
C1906      C1907   1.420       .  A
C1907      C1908   1.403       .  A
C1907      C1914   1.509       .  S
C1908      C1909   1.402       .  A
C1908      H1913   1.083       .  S
C1909      C1910   1.421       .  A
C1910      C1911   1.506       .  S
C1911      H1915   1.111       .  S
C1911      H1916   1.111       .  S
C1911      H1917   1.108       .  S
C1914      H1918   1.111       .  S
C1914      H1919   1.108       .  S
C1914      H1920   1.111       .  S
C1921      C1922   1.414       .  A
C1921      C1926   1.405       .  A
C1921      H1928   1.086       .  S
C1922      C1923   1.407       .  A
C1923      C1924   1.406       .  A
C1923      C1930   1.506       .  S
C1924      C1925   1.413       .  A
C1924      H1929   1.086       .  S
C1925      C1926   1.408       .  A
C1926      C1927   1.507       .  S
C1927      H1931   1.111       .  S
C1927      H1932   1.111       .  S
C1927      H1933   1.110       .  S
C1930      H1934   1.111       .  S
C1930      H1935   1.109       .  S
C1930      H1936   1.110       .  S
C1937      C1938   1.413       .  A
C1937      C1942   1.408       .  A
C1937      H1944   1.084       .  S
C1938      C1939   1.418       .  A
C1939      C1940   1.405       .  A
C1939      C1946   1.509       .  S
C1940      C1941   1.411       .  A
C1940      H1945   1.085       .  S
C1941      C1942   1.416       .  A
C1942      C1943   1.508       .  S
C1943      H1947   1.111       .  S
C1943      H1948   1.110       .  S
C1943      H1949   1.110       .  S
C1946      H1950   1.110       .  S
C1946      H1951   1.111       .  S
C1946      H1952   1.111       .  S
C1953      C1954   1.408       .  A
C1953      C1958   1.408       .  A
C1953      H1960   1.084       .  S
C1954      C1955   1.419       .  A
C1955      C1956   1.412       .  A
C1955      C1962   1.506       .  S
C1956      C1957   1.407       .  A
C1956      H1961   1.084       .  S
C1957      C1958   1.418       .  A
C1958      C1959   1.509       .  S
C1959      H1963   1.111       .  S
C1959      H1964   1.110       .  S
C1959      H1965   1.109       .  S
C1962      H1966   1.109       .  S
C1962      H1967   1.110       .  S
C1962      H1968   1.111       .  S
C1969      C1970   1.407       .  A
C1969      C1974   1.407       .  A
C1969      H1976   1.084       .  S
C1970      C1971   1.418       .  A
C1971      C1972   1.415       .  A
C1971      C1978   1.505       .  S
C1972      C1973   1.409       .  A
C1972      H1977   1.083       .  S
C1973      C1974   1.419       .  A
C1974      C1975   1.509       .  S
C1975      H1979   1.111       .  S
C1975      H1980   1.108       .  S
C1975      H1981   1.111       .  S
C1978      H1982   1.109       .  S
C1978      H1983   1.111       .  S
C1978      H1984   1.111       .  S
C1985      C1986   1.410       .  A
C1985      C1990   1.403       .  A
C1985      H1992   1.083       .  S
C1986      C1987   1.417       .  A
C1987      C1988   1.406       .  A
C1987      C1994   1.509       .  S
C1988      C1989   1.412       .  A
C1988      H1993   1.083       .  S
C1989      C1990   1.418       .  A
C1990      C1991   1.510       .  S
C1991      H1995   1.110       .  S
C1991      H1996   1.110       .  S
C1991      H1997   1.111       .  S
C1994      H1998   1.110       .  S
C1994      H1999   1.110       .  S
C1994      H2000   1.111       .  S
C2001      C2002   1.402       .  A
C2001      C2006   1.409       .  A
C2001      H2008   1.086       .  S
C2002      C2003   1.419       .  A
C2003      C2004   1.409       .  A
C2003      C2010   1.509       .  S
C2004      C2005   1.406       .  A
C2004      H2009   1.085       .  S
C2005      C2006   1.425       .  A
C2006      C2007   1.510       .  S
C2007      H2011   1.111       .  S
C2007      H2012   1.110       .  S
C2007      H2013   1.109       .  S
C2010      H2014   1.108       .  S
C2010      H2015   1.111       .  S
C2010      H2016   1.111       .  S
C2017      C2018   1.401       .  A
C2017      C2022   1.407       .  A
C2017      H2024   1.085       .  S
C2018      C2019   1.422       .  A
C2019      C2020   1.407       .  A
C2019      C2026   1.510       .  S
C2020      C2021   1.404       .  A
C2020      H2025   1.084       .  S
C2021      C2022   1.425       .  A
C2022      C2023   1.510       .  S
C2023      H2027   1.111       .  S
C2023      H2028   1.109       .  S
C2023      H2029   1.110       .  S
C2026      H2030   1.110       .  S
C2026      H2031   1.110       .  S
C2026      H2032   1.111       .  S
C2033      C2034   1.416       .  A
C2033      C2038   1.404       .  A
C2033      H2040   1.086       .  S
C2034      C2035   1.406       .  A
C2035      C2036   1.402       .  A
C2035      C2042   1.507       .  S
C2036      C2037   1.414       .  A
C2036      H2041   1.086       .  S
C2037      C2038   1.406       .  A
C2038      C2039   1.507       .  S
C2039      H2043   1.111       .  S
C2039      H2044   1.109       .  S
C2039      H2045   1.111       .  S
C2042      H2046   1.109       .  S
C2042      H2047   1.111       .  S
C2042      H2048   1.111       .  S
C2049      C2050   1.403       .  A
C2049      C2054   1.402       .  A
C2049      H2056   1.084       .  S
C2050      C2051   1.420       .  A
C2051      C2052   1.399       .  A
C2051      C2058   1.511       .  S
C2052      C2053   1.404       .  A
C2052      H2057   1.084       .  S
C2053      C2054   1.421       .  A
C2054      C2055   1.510       .  S
C2055      H2059   1.111       .  S
C2055      H2060   1.110       .  S
C2055      H2061   1.110       .  S
C2058      H2062   1.110       .  S
C2058      H2063   1.110       .  S
C2058      H2064   1.111       .  S
C2065      C2066   1.400       .  A
C2065      C2070   1.403       .  A
C2065      H2072   1.085       .  S
C2066      C2067   1.420       .  A
C2067      C2068   1.406       .  A
C2067      C2074   1.510       .  S
C2068      C2069   1.403       .  A
C2068      H2073   1.085       .  S
C2069      C2070   1.425       .  A
C2070      C2071   1.511       .  S
C2071      H2075   1.111       .  S
C2071      H2076   1.110       .  S
C2071      H2077   1.110       .  S
C2074      H2078   1.108       .  S
C2074      H2079   1.111       .  S
C2074      H2080   1.111       .  S
C2081      C2082   1.409       .  A
C2081      C2086   1.405       .  A
C2081      H2088   1.085       .  S
C2082      C2083   1.409       .  A
C2083      C2084   1.402       .  A
C2083      C2090   1.507       .  S
C2084      C2085   1.410       .  A
C2084      H2089   1.085       .  S
C2085      C2086   1.413       .  A
C2086      C2087   1.507       .  S
C2087      H2091   1.111       .  S
C2087      H2092   1.110       .  S
C2087      H2093   1.111       .  S
C2090      H2095   1.110       .  S
C2090      H2096   1.110       .  S
C2097      C2098   1.398       .  A
C2097      C2102   1.403       .  A
C2097      H2104   1.085       .  S
C2098      C2099   1.421       .  A
C2099      C2100   1.403       .  A
C2100      C2101   1.399       .  A
C2101      C2102   1.422       .  A
C2102      C2103   1.510       .  S
C2103      H2107   1.111       .  S
C2103      H2108   1.111       .  S
C2103      H2109   1.109       .  S
C2106      H2110   1.110       .  S
C2106      H2112   1.111       .  S
C2113      C2114   1.403       .  A
C2113      C2118   1.408       .  A
C2113      H2120   1.084       .  S
C2114      C2115   1.410       .  A
C2115      C2116   1.399       .  A
C2115      C2122   1.509       .  S
C2116      C2117   1.406       .  A
C2116      H2121   1.084       .  S
C2117      C2118   1.417       .  A
C2118      C2119   1.507       .  S
C2119      H2123   1.111       .  S
C2119      H2124   1.110       .  S
C2119      H2125   1.110       .  S
C2122      H2126   1.110       .  S
C2122      H2127   1.111       .  S
C2122      H2128   1.110       .  S
C2129      C2130   1.416       .  A
C2129      C2134   1.406       .  A
C2129      H2136   1.083       .  S
C2130      C2131   1.416       .  A
C2131      C2132   1.408       .  A
C2131      C2138   1.507       .  S
C2132      C2133   1.411       .  A
C2132      H2137   1.084       .  S
C2133      C2134   1.410       .  A
C2134      C2135   1.508       .  S
C2135      H2139   1.111       .  S
C2135      H2140   1.110       .  S
C2135      H2141   1.110       .  S
C2138      H2142   1.111       .  S
C2138      H2143   1.109       .  S
C2138      H2144   1.111       .  S
C2145      C2146   1.407       .  A
C2145      C2150   1.410       .  A
C2145      H2152   1.085       .  S
C2146      C2147   1.404       .  A
C2147      C2148   1.402       .  A
C2147      C2154   1.507       .  S
C2148      C2149   1.410       .  A
C2148      H2153   1.082       .  S
C2149      C2150   1.415       .  A
C2150      C2151   1.506       .  S
C2151      H2155   1.111       .  S
C2151      H2156   1.110       .  S
C2151      H2157   1.110       .  S
C2154      H2158   1.110       .  S
C2154      H2159   1.110       .  S
C2154      H2160   1.111       .  S
C2161      C2162   1.407       .  A
C2161      C2166   1.402       .  A
C2161      H2168   1.084       .  S
C2162      C2163   1.405       .  A
C2163      C2164   1.401       .  A
C2163      C2170   1.507       .  S
C2164      C2165   1.411       .  A
C2164      H2169   1.084       .  S
C2165      C2166   1.411       .  A
C2166      C2167   1.507       .  S
C2167      H2171   1.111       .  S
C2167      H2172   1.110       .  S
C2167      H2173   1.110       .  S
C2170      H2174   1.110       .  S
C2170      H2175   1.111       .  S
C2170      H2176   1.111       .  S
C2177      C2178   1.414   1_565  A
C2177      C2182   1.403       .  A
C2177      H2184   1.084       .  S
C2178      C2179   1.406   1_655  A
C2179      C2180   1.403       .  A
C2179      C2186   1.507       .  S
C2180      C2181   1.415   1_545  A
C2180      H2185   1.084       .  S
C2181      C2182   1.406   1_455  A
C2182      C2183   1.506       .  S
C2183      H2187   1.111       .  S
C2183      H2188   1.111       .  S
C2183      H2189   1.109       .  S
C2186      H2190   1.111       .  S
C2186      H2191   1.110       .  S
C2186      H2192   1.111       .  S
C2193      C2194   1.407   1_445  A
C2193      H2200   1.083       .  S
C2194      C2195   1.414       .  A
C2195      C2202   1.508       .  S
C2196      C2197   1.407   1_665  A
C2196      H2201   1.082   1_565  S
C2197      C2198   1.421   1_545  A
C2198      C2199   1.511       .  S
C2199      H2203   1.111       .  S
C2199      H2204   1.110   1_565  S
C2199      H2205   1.110       .  S
C2202      H2206   1.108       .  S
C2202      H2207   1.112       .  S
C2202      H2208   1.111       .  S
C2209      C2210   1.403       .  A
C2209      C2214   1.405       .  A
C2209      H2216   1.084       .  S
C2210      C2211   1.420       .  A
C2211      C2212   1.407       .  A
C2211      C2218   1.509       .  S
C2212      C2213   1.402       .  A
C2212      H2217   1.085       .  S
C2213      C2214   1.419       .  A
C2214      C2215   1.509       .  S
C2215      H2219   1.111       .  S
C2215      H2220   1.110       .  S
C2215      H2221   1.109       .  S
C2218      H2222   1.112       .  S
C2218      H2223   1.107       .  S
C2218      H2224   1.111       .  S
C2225      C2226   1.412       .  A
C2225      C2230   1.404       .  A
C2225      H2232   1.083       .  S
C2226      C2227   1.411       .  A
C2227      C2228   1.404       .  A
C2227      C2234   1.507       .  S
C2228      C2229   1.409       .  A
C2228      H2233   1.084       .  S
C2229      C2230   1.409       .  A
C2230      C2231   1.506       .  S
C2231      H2235   1.111       .  S
C2231      H2236   1.110       .  S
C2231      H2237   1.110       .  S
C2234      H2238   1.110       .  S
C2234      H2239   1.110       .  S
C2234      H2240   1.111       .  S
C2241      C2242   1.411       .  A
C2241      C2246   1.403       .  A
C2241      H2248   1.084       .  S
C2242      C2243   1.412       .  A
C2243      C2244   1.406       .  A
C2243      C2250   1.507       .  S
C2244      C2245   1.408       .  A
C2244      H2249   1.085       .  S
C2245      C2246   1.407       .  A
C2246      C2247   1.507       .  S
C2247      H2251   1.111       .  S
C2247      H2252   1.109       .  S
C2247      H2253   1.111       .  S
C2250      H2254   1.110       .  S
C2250      H2255   1.110       .  S
C2250      H2256   1.111       .  S
C2257      C2258   1.408       .  A
C2257      C2262   1.415       .  A
C2257      H2264   1.084       .  S
C2258      C2259   1.417       .  A
C2259      C2260   1.403       .  A
C2259      C2266   1.510       .  S
C2260      C2261   1.406       .  A
C2260      H2265   1.085       .  S
C2261      C2262   1.418       .  A
C2262      C2263   1.506       .  S
C2263      H2267   1.111       .  S
C2263      H2268   1.110       .  S
C2263      H2269   1.111       .  S
C2266      H2270   1.109       .  S
C2266      H2271   1.110       .  S
C2266      H2272   1.111       .  S
