geometry optimzed in LAMMPS
_audit_creation_date              2020-11-30 
_audit_creation_method            'lammps2cif' 
_symmetry_space_group_name_H-M    'P1' 
_symmetry_Int_Tables_number       1 
_symmetry_cell_setting            triclinic 
loop_ 
_symmetry_equiv_pos_as_xyz 
  x,y,z 
_cell_length_a                    27.51472959 
_cell_length_b                    26.899866205246596 
_cell_length_c                    39.25203516828284 
_cell_angle_alpha                 89.28789745369828 
_cell_angle_beta                  91.75284614091694 
_cell_angle_gamma                 122.15731035692275 
loop_ 
_atom_site_label 
_atom_site_type_symbol 
_atom_site_fract_x 
_atom_site_fract_y 
_atom_site_fract_z 
_atom_site_charge 
Zn1        Zn  0.29455615  0.09215762  0.90973451     1.49700
Zn2        Zn  0.34264357  0.17524751  0.97845705     1.49400
Zn3        Zn  0.41765050  0.21037348  0.91069836     1.49100
Zn4        Zn  0.30550002  0.21703022  0.91060444     1.49500
O5          O  0.33978299  0.17323866  0.92866440    -1.83900
O6          O  0.26644031  0.03033528  0.94669512    -0.74500
O7          O  0.43318544  0.22036483  0.99327104    -0.74300
O8          O  0.42852483  0.15678279  0.88251756    -0.73800
O9          O  0.29876732  0.08455854  0.99431342    -0.74500
O10         O  0.34066748  0.07836471  0.87707272    -0.74100
O11         O  0.48200394  0.24493353  0.94528634    -0.74700
O12         O  0.35816229  0.28486879  0.88191897    -0.74100
O13         O  0.29904163  0.21988083  0.99340675    -0.74800
O14         O  0.42959919  0.27023983  0.87654950    -0.74200
O15         O  0.27185182  0.24426100  0.94523467    -0.74700
O16         O  0.24682912  0.16922508  0.87524381    -0.74600
O17         O  0.23079864  0.07940605  0.87715424    -0.74400
C18         C  0.27212212  0.03395156  0.97909719     0.77400
C19         C  0.48135214  0.24393918  0.97755424     0.77900
C20         C  0.39263517  0.10826962  0.86829766     0.76800
C21         C  0.40284515  0.29477334  0.86724173     0.77200
C22         C  0.27375156  0.24319481  0.97759394     0.78400
C23         C  0.22225247  0.11736856  0.86360754     0.77400
Zn24       Zn  0.37599077  0.24885316  0.53010412     1.49700
Zn25       Zn  0.33967444  0.16746400  0.59071650     1.49400
Zn26       Zn  0.25106083  0.12445758  0.53397415     1.49100
Zn27       Zn  0.36874816  0.12230067  0.53270878     1.49500
O28         O  0.33297022  0.16621012  0.54286364    -1.83900
O29         O  0.40892088  0.30121467  0.57307880    -0.74500
O30         O  0.27429729  0.10333408  0.61389519    -0.74300
O31         O  0.23215919  0.18122352  0.50855063    -0.73800
O32         O  0.35003888  0.23729123  0.61075283    -0.74500
O33         O  0.31705777  0.26631828  0.50559366    -0.74100
O34         O  0.21044113  0.10493640  0.57938762    -0.74700
O35         O  0.31122879  0.04974490  0.50541011    -0.74100
O36         O  0.40579329  0.16589622  0.60619764    -0.74800
O37         O  0.22812355  0.04575380  0.50975888    -0.74200
O38         O  0.38277689  0.08803473  0.57594791    -0.74700
O39         O  0.44670582  0.17993792  0.51026361    -0.74600
O40         O  0.44780543  0.26360574  0.50419887    -0.74400
C41         C  0.38977769  0.28837852  0.60316027     0.77400
C42         C  0.22516583  0.09509229  0.60863106     0.77900
C43         C  0.26214613  0.23577893  0.50038498     0.76800
C44         C  0.25677608  0.02304740  0.50074288     0.77200
C45         C  0.40246583  0.11771231  0.60328706     0.78400
C46         C  0.47148515  0.23369169  0.50069797     0.77400
C47         C  0.00883576  0.01329157  0.76692991     0.45700
H48         H  0.01375009  0.01471435  0.79516260    -0.03300
C49         C  0.99718409  0.01126304  0.70222059     0.45800
H50         H  0.99178898  0.51203286  0.67375633    -0.03300
C51         C  0.47349632  0.03993649  0.75403695    -0.17000
C52         C  0.06751642  0.04884864  0.74836030    -0.16800
C53         C  0.47369536  0.44730360  0.75203170    -0.17100
C54         C  0.47034752  0.04094725  0.71917989    -0.17100
C55         C  0.06123480  0.04695213  0.71272431    -0.16700
C56         C  0.46922838  0.44766363  0.71688401    -0.17000
Zn57       Zn  0.19960467  0.29277740  0.41410509     1.49700
Zn58       Zn  0.20069612  0.41007538  0.41544447     1.49400
Zn59       Zn  0.08252506  0.28517386  0.41488837     1.49100
Zn60       Zn  0.16379849  0.32877149  0.48372065     1.49500
O61         O  0.16192571  0.32929447  0.43348912    -1.83900
O62         O  0.26106106  0.34497938  0.38270797    -0.74500
O63         O  0.14767243  0.42432712  0.38890210    -0.74300
O64         O  0.06064334  0.21462708  0.38600164    -0.73800
O65         O  0.26098377  0.42714801  0.38061621    -0.74500
O66         O  0.14798403  0.23260084  0.38041820    -0.74100
O67         O  0.07517774  0.33384680  0.37985216    -0.74700
O68         O  0.07599073  0.28245703  0.49932333    -0.74100
O69         O  0.23270669  0.47071743  0.45213580    -0.74800
O70         O  0.02412064  0.26232165  0.45081276    -0.74200
O71         O  0.20597898  0.41885235  0.50025203    -0.74700
O72         O  0.20978494  0.28641392  0.49893103    -0.74600
O73         O  0.23114494  0.26169710  0.44993916    -0.74400
C74         C  0.27916944  0.39543059  0.37031294     0.77400
C75         C  0.10278029  0.38778783  0.37226757     0.77900
C76         C  0.09555264  0.20580856  0.37100430     0.76800
C77         C  0.02725820  0.26165224  0.48318216     0.77200
C78         C  0.22991562  0.46842254  0.48438313     0.78400
C79         C  0.23284608  0.26299858  0.48241636     0.77400
Zn80       Zn  0.09863091  0.29669826  0.06392303     1.49700
Zn81       Zn  0.21080659  0.29036215  0.06413582     1.49400
Zn82       Zn  0.17610796  0.33646992  0.99740796     1.49100
Zn83       Zn  0.22239294  0.41565214  0.06858990     1.49500
O84         O  0.17765268  0.33579887  0.04733605    -1.83900
O85         O  0.08232084  0.23116662  0.09431493    -0.74500
O86         O  0.24723096  0.26764734  0.02907783    -0.74300
O87         O  0.08596122  0.29303096  0.98107439    -0.73800
O88         O  0.15358570  0.21669503  0.08767671    -0.74500
O89         O  0.03633806  0.26765014  0.02867666    -0.74100
O90         O  0.21983771  0.29247520  0.98121730    -0.74700
O91         O  0.25345248  0.48047298  0.03227292    -0.74100
O92         O  0.26804434  0.33459428  0.10158276    -0.74800
O93         O  0.22132982  0.42793200  0.98394762    -0.74200
O94         O  0.28326112  0.42423155  0.10332487    -0.74700
O95         O  0.17312991  0.42707007  0.10040869    -0.74600
O96         O  0.08686301  0.34639956  0.09449784    -0.74400
C97         C  0.10744233  0.20423183  0.10163269     0.77400
C98         C  0.24551996  0.26935521  0.99676706     0.77900
C99         C  0.03754140  0.26972147  0.99648249     0.76800
C100        C  0.24827211  0.47801426  0.99973878     0.77200
C101        C  0.29177682  0.38511516  0.11520635     0.78400
C102        C  0.12100068  0.39521377  0.10885274     0.77400
C103        C  0.01368797  0.99970722  0.27111203     0.45700
H104        H  0.02612312  0.00834182  0.29756028    -0.03300
C105        C  0.99692335  0.98767088  0.20675152     0.45800
H106        H  0.99067744  0.98277698  0.17865136    -0.03300
C107        C  0.03965225  0.46644436  0.25490760    -0.17000
C108        C  0.44948495  0.46422588  0.26392933    -0.16800
C109        C  0.03729242  0.05855326  0.25342384    -0.17100
C110        C  0.03355639  0.46262289  0.22029413    -0.17100
C111        C  0.43877065  0.45201713  0.22847140    -0.16700
C112        C  0.02797940  0.05331868  0.21860059    -0.17000
C113        C  0.12390849  0.18001712  0.15974061    -0.01600
C114        C  0.08711501  0.16452823  0.13087803     0.08100
C115        C  0.02882795  0.12097236  0.13338558    -0.01700
C116        C  0.00816962  0.09072977  0.16419236    -0.01700
C117        C  0.04585130  0.10161871  0.19253531     0.08200
C118        C  0.10270111  0.15182617  0.19097728    -0.01900
Br119      Br  0.15503871  0.18655506  0.22940282    -0.00500
Br120      Br  0.20465541  0.24057946  0.15690794    -0.00500
Br121      Br  0.42589622  0.04081058  0.16860891    -0.00500
Br122      Br  0.47717469  0.10084904  0.09406839    -0.00500
C123        C  0.33177893  0.40000221  0.20976944    -0.01600
C124        C  0.38479710  0.40428476  0.20938183     0.08100
C125        C  0.39330803  0.38070685  0.17996431    -0.01700
C126        C  0.36845846  0.38154700  0.14843487    -0.01700
C127        C  0.32580170  0.39528494  0.14721441     0.08200
C128        C  0.30523968  0.40150213  0.17859228    -0.01900
Br129      Br  0.23592984  0.40275951  0.17975005    -0.00500
Br130      Br  0.28016963  0.34722692  0.24319772    -0.00500
Br131      Br  0.39276983  0.36272300  0.10756861    -0.00500
Br132      Br  0.41757038  0.32685696  0.18541808    -0.00500
C133        C  0.11461471  0.46997231  0.14194065    -0.01600
C134        C  0.10065755  0.41216469  0.13817955     0.08100
C135        C  0.07322997  0.37171581  0.16485303    -0.01700
C136        C  0.05552024  0.38787304  0.19385704    -0.01700
C137        C  0.06364356  0.44477671  0.19591453     0.08200
C138        C  0.09945269  0.48652516  0.17152384    -0.01900
Br139      Br  0.64242348  0.56748816  0.18273584    -0.00500
Br140      Br  0.15395202  0.52706217  0.10639871    -0.00500
Br141      Br  0.02591096  0.33106272  0.22999226    -0.00500
Br142      Br  0.06238392  0.29424210  0.16266634    -0.00500
C143        C  0.31739646  0.43703280  0.31238130    -0.01600
C144        C  0.32403683  0.41747223  0.34448466     0.08100
C145        C  0.37469854  0.41941646  0.35265411    -0.01700
C146        C  0.41843784  0.43977332  0.32867141    -0.01700
C147        C  0.40861919  0.45148751  0.29356735     0.08200
C148        C  0.36141877  0.45856839  0.28848589    -0.01900
Br149      Br  0.36127788  0.50863357  0.25311403    -0.00500
Br150      Br  0.24463625  0.42604566  0.29875395    -0.00500
Br151      Br  0.49084774  0.46213027  0.35155722    -0.00500
Br152      Br  0.38466960  0.39628426  0.39849212    -0.00500
C153        C  0.10305548  0.11640880  0.30156209    -0.01600
C154        C  0.06165182  0.11041659  0.27704849     0.08100
C155        C  0.03378071  0.14080700  0.28258634    -0.01700
C156        C  0.04259332  0.17043674  0.31392143    -0.01700
C157        C  0.07783268  0.16791316  0.34029592     0.08200
C158        C  0.10697030  0.13930286  0.33384581    -0.01900
Br159      Br  0.15045293  0.12782382  0.36947361    -0.00500
Br160      Br  0.15875410  0.09814465  0.29012388    -0.00500
Br161      Br  0.00805513  0.21611173  0.31941196    -0.00500
Br162      Br  0.48924128  0.14822456  0.24648500    -0.00500
C163        C  0.12832914  0.45146836  0.32054439    -0.01600
C164        C  0.08566983  0.40660954  0.34120918     0.08100
C165        C  0.02817978  0.37321747  0.32878865    -0.01700
C166        C  0.01341469  0.38743245  0.29729862    -0.01700
C167        C  0.05628566  0.43338365  0.27747887     0.08200
C168        C  0.11396564  0.45886102  0.28719636    -0.01900
Br169      Br  0.17181869  0.99516937  0.25527107    -0.00500
Br170      Br  0.20482340  0.50897982  0.33769497    -0.00500
Br171      Br  0.43359706  0.34162953  0.28152743    -0.00500
Br172      Br  0.46678733  0.31591422  0.35752923    -0.00500
C173        C  0.49321338  0.11788249  0.67565947    -0.01600
C174        C  0.45162048  0.07292818  0.69669327     0.08100
C175        C  0.39323927  0.04785837  0.68807792    -0.01700
C176        C  0.37728429  0.05648365  0.65522430    -0.01700
C177        C  0.41955091  0.09711780  0.63303634     0.08200
C178        C  0.47710840  0.13002947  0.64407617    -0.01900
Br179      Br  0.53429013  0.19053154  0.61508423    -0.00500
Br180      Br  0.07145106  0.16802895  0.69165619    -0.00500
Br181      Br  0.29782100  0.01089300  0.64048190    -0.00500
Br182      Br  0.33562070  0.00639925  0.72177821    -0.00500
C183        C  0.20552854  0.11578238  0.66686340    -0.01600
C184        C  0.18673420  0.07952891  0.63748580     0.08100
C185        C  0.12837718  0.03874562  0.63207598    -0.01700
C186        C  0.08895995  0.04182712  0.65182743    -0.01700
C187        C  0.10585597  0.06942499  0.68470398     0.08200
C188        C  0.16524884  0.11265129  0.68968249    -0.01900
Br189      Br  0.19283889  0.17727852  0.72126186    -0.00500
Br190      Br  0.28655677  0.16950981  0.67674949    -0.00500
Br191      Br  0.07120355  0.45411901  0.67247693    -0.00500
Br192      Br  0.10120105  0.98408131  0.59422819    -0.00500
C193        C  0.45567222  0.35422988  0.68902191    -0.01600
C194        C  0.44044274  0.39671257  0.69205981     0.08100
C195        C  0.40275677  0.39669317  0.66662112    -0.01700
C196        C  0.39206545  0.36698548  0.63565569    -0.01700
C197        C  0.41361458  0.33109290  0.63105767     0.08200
C198        C  0.44373948  0.32318356  0.65814201    -0.01900
Br199      Br  0.96508923  0.26841755  0.65489087    -0.00500
Br200      Br  0.99444954  0.34141357  0.72540074    -0.00500
Br201      Br  0.34350515  0.37121530  0.60049653    -0.00500
Br202      Br  0.35053597  0.41930089  0.67774788    -0.00500
C203        C  0.39449868  0.03187432  0.83362825    -0.01600
C204        C  0.41037832  0.09023997  0.83818866     0.08100
C205        C  0.43672598  0.13061894  0.81139977    -0.01700
C206        C  0.45331420  0.11457300  0.78193931    -0.01700
C207        C  0.44398838  0.05731163  0.77908358     0.08200
C208        C  0.40850535  0.01527738  0.80350358    -0.01900
Br209      Br  0.36478929  0.43412098  0.79733597    -0.00500
Br210      Br  0.35386702  0.97422920  0.86866623    -0.00500
Br211      Br  0.48465628  0.17278915  0.74668651    -0.00500
Br212      Br  0.44682497  0.20766166  0.81384423    -0.00500
C213        C  0.14928727  0.12356932  0.82805747    -0.01600
C214        C  0.18690372  0.10352161  0.83195009     0.08100
C215        C  0.19773656  0.07963496  0.80329275    -0.01700
C216        C  0.16312029  0.06577379  0.77319955    -0.01700
C217        C  0.12053745  0.08026248  0.77099615     0.08200
C218        C  0.12073216  0.11643551  0.79676701    -0.01900
Br219      Br  0.08937559  0.16381112  0.78768416    -0.00500
Br220      Br  0.13450495  0.15920636  0.86564021    -0.00500
Br221      Br  0.17701880  0.53669651  0.73651753    -0.00500
Br222      Br  0.26079501  0.06724169  0.80468863    -0.00500
C223        C  0.39926439  0.34694516  0.77779601    -0.01600
C224        C  0.45614176  0.39629138  0.77567479     0.08100
C225        C  0.49633755  0.40310032  0.80139333    -0.01700
C226        C  0.47849871  0.37441523  0.83257442    -0.01700
C227        C  0.42082462  0.33049422  0.83631142     0.08200
C228        C  0.38219790  0.31379807  0.80801689    -0.01900
Br229      Br  0.30596941  0.24459563  0.81007255    -0.00500
Br230      Br  0.34204682  0.32456497  0.74186899    -0.00500
Br231      Br  0.53343850  0.39649671  0.87012621    -0.00500
Br232      Br  0.07348197  0.44004671  0.79221352    -0.00500
Zn233      Zn  0.29541864  0.59313854  0.91045168     1.49700
Zn234      Zn  0.34206510  0.67572132  0.97850052     1.49400
Zn235      Zn  0.41712795  0.71375526  0.91003030     1.49100
Zn236      Zn  0.30321614  0.71652508  0.91050631     1.49500
O237        O  0.33925872  0.67449941  0.92860944    -1.83900
O238        O  0.26903516  0.53108165  0.94740082    -0.74500
O239        O  0.43252498  0.72104599  0.99272482    -0.74300
O240        O  0.42733500  0.66354122  0.87871097    -0.73800
O241        O  0.29902044  0.58516600  0.99498548    -0.74500
O242        O  0.34136609  0.58190164  0.87676455    -0.74100
O243        O  0.48119967  0.74472605  0.94464360    -0.74700
O244        O  0.35357760  0.78341144  0.88034576    -0.74100
O245        O  0.29802803  0.71966688  0.99381341    -0.74800
O246        O  0.43007876  0.77637576  0.87793430    -0.74200
O247        O  0.27043669  0.74389740  0.94570407    -0.74700
O248        O  0.24323090  0.66642098  0.87643037    -0.74600
O249        O  0.23009086  0.57766512  0.87896035    -0.74400
C250        C  0.27362661  0.53455245  0.97983765     0.77400
C251        C  0.48053002  0.74391700  0.97691945     0.77900
C252        C  0.39188580  0.61370532  0.86585875     0.76800
C253        C  0.40092817  0.79767915  0.86743769     0.77200
C254        C  0.27242056  0.74271396  0.97808428     0.78400
C255        C  0.21941249  0.61415192  0.86556218     0.77400
Zn256      Zn  0.37313982  0.75465453  0.52880779     1.49700
Zn257      Zn  0.33297930  0.67804095  0.59112357     1.49400
Zn258      Zn  0.24881957  0.62939787  0.53149767     1.49100
Zn259      Zn  0.36723266  0.63025795  0.53392511     1.49500
O260        O  0.33020043  0.67295555  0.54272220    -1.83900
O261        O  0.40478179  0.80731479  0.57150733    -0.74500
O262        O  0.27030258  0.68179006  0.61034867    -0.74300
O263        O  0.23046226  0.68363544  0.50396422    -0.73800
O264        O  0.40431680  0.74533700  0.60898814    -0.74500
O265        O  0.31386086  0.77070059  0.50392266    -0.74100
O266        O  0.20490648  0.61462178  0.57526260    -0.74700
O267        O  0.31125138  0.55361359  0.50880765    -0.74100
O268        O  0.32872096  0.61143026  0.61347564    -0.74800
O269        O  0.22745063  0.54868965  0.50928615    -0.74200
O270        O  0.38565067  0.60474093  0.57820941    -0.74700
O271        O  0.44376945  0.68579688  0.51035579    -0.74600
O272        O  0.44502394  0.76920013  0.50292328    -0.74400
C273        C  0.41673356  0.79636872  0.60128982     0.77400
C274        C  0.21899630  0.64091791  0.60408890     0.77900
C275        C  0.25949045  0.73865054  0.49714495     0.76800
C276        C  0.25709039  0.52584230  0.50263502     0.77200
C277        C  0.36499930  0.59781076  0.60767983     0.78400
C278        C  0.46844963  0.73895018  0.49993316     0.77400
C279        C  0.00186935  0.51142790  0.76736906     0.45700
H280        H  0.00449136  0.51105631  0.79566680    -0.03300
C281        C  0.99490547  0.51185647  0.70205206     0.45800
H282        H  0.98668071  0.00722368  0.67528274    -0.03300
C283        C  0.46816406  0.53674550  0.75382271    -0.17000
C284        C  0.06196377  0.54745796  0.75109510    -0.16800
C285        C  0.48024174  0.95036621  0.75172707    -0.17100
C286        C  0.46679527  0.53845375  0.71868105    -0.17100
C287        C  0.05849428  0.54642621  0.71578606    -0.16700
C288        C  0.47395837  0.95038111  0.71665531    -0.17000
Zn289      Zn  0.19487850  0.79345536  0.41174084     1.49700
Zn290      Zn  0.19553079  0.90891265  0.41333424     1.49400
Zn291      Zn  0.07700518  0.78367743  0.41410475     1.49100
Zn292      Zn  0.15847226  0.82763904  0.48167355     1.49500
O293        O  0.15683185  0.82860812  0.43169764    -1.83900
O294        O  0.25570818  0.84512241  0.37995124    -0.74500
O295        O  0.13973334  0.92229437  0.38955105    -0.74300
O296        O  0.05436494  0.71208755  0.38619485    -0.73800
O297        O  0.25570813  0.92707252  0.37743871    -0.74500
O298        O  0.14243170  0.73270872  0.37911656    -0.74100
O299        O  0.07005831  0.83108872  0.37864060    -0.74700
O300        O  0.07092776  0.78249971  0.49807357    -0.74100
O301        O  0.23012096  0.96897397  0.44997495    -0.74800
O302        O  0.01882717  0.76348970  0.44983145    -0.74200
O303        O  0.20203060  0.91680809  0.49798418    -0.74700
O304        O  0.20523097  0.78663382  0.49621685    -0.74600
O305        O  0.22776814  0.76374573  0.44699212    -0.74400
C306        C  0.27442540  0.89557222  0.36747264     0.77400
C307        C  0.09638376  0.88526529  0.37195150     0.77900
C308        C  0.08957503  0.70434613  0.37069285     0.76800
C309        C  0.02217602  0.76295112  0.48217907     0.77200
C310        C  0.22752931  0.96632821  0.48219984     0.78400
C311        C  0.22943494  0.76480456  0.47942504     0.77400
Zn312      Zn  0.09815179  0.79972408  0.06416187     1.49700
Zn313      Zn  0.20796541  0.78950889  0.06457706     1.49400
Zn314      Zn  0.17533121  0.83636232  0.99743369     1.49100
Zn315      Zn  0.22273410  0.91655889  0.06776553     1.49500
O316        O  0.17668985  0.83627138  0.04730416    -1.83900
O317        O  0.07965035  0.73404859  0.09523012    -0.74500
O318        O  0.24388685  0.76530432  0.02962091    -0.74300
O319        O  0.08548921  0.79250992  0.98125910    -0.73800
O320        O  0.15001615  0.71775963  0.08960571    -0.74500
O321        O  0.03638246  0.77037327  0.02897194    -0.74100
O322        O  0.21926828  0.79262405  0.98164114    -0.74700
O323        O  0.25271443  0.98046896  0.03143690    -0.74100
O324        O  0.26585182  0.83462240  0.10141149    -0.74800
O325        O  0.21991371  0.92740920  0.98335835    -0.74200
O326        O  0.28464669  0.92574799  0.10123738    -0.74700
O327        O  0.17604408  0.92985414  0.10043395    -0.74600
O328        O  0.08811028  0.85203271  0.09376409    -0.74400
C329        C  0.10392835  0.70651271  0.10320336     0.77400
C330        C  0.24377454  0.76841419  0.99729968     0.77900
C331        C  0.03736629  0.77057042  0.99679979     0.76800
C332        C  0.24696476  0.97761621  0.99898248     0.77200
C333        C  0.29151119  0.88607744  0.11394810     0.78400
C334        C  0.12376166  0.89988188  0.10864992     0.77400
C335        C  0.01445512  0.49912662  0.27152020     0.45700
H336        H  0.02768471  0.50780520  0.29765523    -0.03300
C337        C  0.99602121  0.48646281  0.20740081     0.45800
H338        H  0.98910518  0.48138385  0.17934452    -0.03300
C339        C  0.03898952  0.96688445  0.25465386    -0.17000
C340        C  0.44858341  0.96449177  0.26291329    -0.16800
C341        C  0.03702642  0.55771392  0.25387114    -0.17100
C342        C  0.03396324  0.96355811  0.22008478    -0.17100
C343        C  0.43876971  0.95284209  0.22743155    -0.16700
C344        C  0.02696722  0.55218642  0.21913603    -0.17000
C345        C  0.11890399  0.68540618  0.16238373    -0.01600
C346        C  0.08328989  0.66790461  0.13293399     0.08100
C347        C  0.02628030  0.62089764  0.13443661    -0.01700
C348        C  0.00601033  0.58941887  0.16492992    -0.01700
C349        C  0.04388692  0.60057056  0.19325985     0.08200
C350        C  0.09972969  0.65270184  0.19252645    -0.01900
Br351      Br  0.15528429  0.68097456  0.22973543    -0.00500
Br352      Br  0.19510537  0.75544176  0.16152882    -0.00500
Br353      Br  0.42410925  0.53761241  0.16909711    -0.00500
Br354      Br  0.47577628  0.59852848  0.09449886    -0.00500
C355        C  0.33271055  0.90422199  0.20809701    -0.01600
C356        C  0.38471651  0.90634897  0.20796399     0.08100
C357        C  0.39264584  0.88171403  0.17876017    -0.01700
C358        C  0.36703805  0.88118101  0.14725044    -0.01700
C359        C  0.32595139  0.89698826  0.14571806     0.08200
C360        C  0.30696602  0.90629618  0.17681047    -0.01900
Br361      Br  0.24073772  0.91314678  0.17766349    -0.00500
Br362      Br  0.27964056  0.85302533  0.24150483    -0.00500
Br363      Br  0.38825744  0.85810103  0.10664648    -0.00500
Br364      Br  0.42095960  0.83130903  0.18418913    -0.00500
C365        C  0.12168301  0.97536957  0.14421211    -0.01600
C366        C  0.10486345  0.91692335  0.13864935     0.08100
C367        C  0.07573733  0.87503014  0.16440292    -0.01700
C368        C  0.05727436  0.88993688  0.19351010    -0.01700
C369        C  0.06588261  0.94693033  0.19639567     0.08200
C370        C  0.10490914  0.99031333  0.17381883    -0.01900
Br371      Br  0.64920923  0.06973618  0.18812988    -0.00500
Br372      Br  0.16768737  0.03562670  0.11151869    -0.00500
Br373      Br  0.02607625  0.83127870  0.22864022    -0.00500
Br374      Br  0.06417327  0.79737058  0.16107087    -0.00500
C375        C  0.31740701  0.94177524  0.31077683    -0.01600
C376        C  0.32042944  0.91746685  0.34206286     0.08100
C377        C  0.36861313  0.91411427  0.34968620    -0.01700
C378        C  0.41345835  0.93517875  0.32641916    -0.01700
C379        C  0.40657567  0.95114231  0.29193205     0.08200
C380        C  0.36190267  0.96222111  0.28718972    -0.01900
Br381      Br  0.36509576  0.01407945  0.25193312    -0.00500
Br382      Br  0.24809189  0.93806766  0.29727653    -0.00500
Br383      Br  0.48455250  0.95506696  0.34981723    -0.00500
Br384      Br  0.37471146  0.88314612  0.39380813    -0.00500
C385        C  0.09989330  0.61532363  0.30306888    -0.01600
C386        C  0.05966011  0.60931853  0.27757742     0.08100
C387        C  0.03057214  0.63876671  0.28238714    -0.01700
C388        C  0.03810922  0.66845013  0.31349842    -0.01700
C389        C  0.07185120  0.66556580  0.34060439     0.08200
C390        C  0.10104872  0.63682109  0.33529449    -0.01900
Br391      Br  0.14127491  0.62414842  0.37251110    -0.00500
Br392      Br  0.15622964  0.59674629  0.29391182    -0.00500
Br393      Br  0.00428914  0.71491511  0.31782466    -0.00500
Br394      Br  0.48543166  0.64434423  0.24591701    -0.00500
C395        C  0.12372303  0.95020813  0.32119470    -0.01600
C396        C  0.08024878  0.90402552  0.34069811     0.08100
C397        C  0.02372143  0.86949646  0.32679895    -0.01700
C398        C  0.01037172  0.88521205  0.29536306    -0.01700
C399        C  0.05422211  0.93252035  0.27681890     0.08200
C400        C  0.11129926  0.95780449  0.28758702    -0.01900
Br401      Br  0.17290386  0.49886323  0.25401972    -0.00500
Br402      Br  0.19841141  0.00899780  0.34005212    -0.00500
Br403      Br  0.43171381  0.83999386  0.27805880    -0.00500
Br404      Br  0.46177887  0.80902968  0.35354668    -0.00500
C405        C  0.47350096  0.60048512  0.66903645    -0.01600
C406        C  0.43973231  0.56295589  0.69544135     0.08100
C407        C  0.38048954  0.54364298  0.69486950    -0.01700
C408        C  0.35506025  0.55167722  0.66518894    -0.01700
C409        C  0.38897125  0.58200130  0.63684950     0.08200
C410        C  0.44883039  0.60805959  0.63945679    -0.01900
Br411      Br  0.49960699  0.65897416  0.60404414    -0.00500
Br412      Br  0.05203056  0.65535639  0.67700305    -0.00500
Br413      Br  0.27258868  0.51683764  0.66270616    -0.00500
Br414      Br  0.33096583  0.50324352  0.73241269    -0.00500
C415        C  0.18326054  0.65648045  0.65932718    -0.01600
C416        C  0.17784853  0.61897410  0.63238804     0.08100
C417        C  0.14019466  0.55799144  0.63603529    -0.01700
C418        C  0.10625951  0.53570147  0.66485273    -0.01700
C419        C  0.10705055  0.57255068  0.69058279     0.08200
C420        C  0.15044440  0.63319167  0.68902502    -0.01900
Br421      Br  0.16633511  0.68638631  0.72632634    -0.00500
Br422      Br  0.23271612  0.74070176  0.65504668    -0.00500
Br423      Br  0.03607796  0.04923611  0.62166292    -0.00500
Br424      Br  0.13822105  0.50251134  0.60361549    -0.00500
C425        C  0.48713855  0.87717222  0.68445746    -0.01600
C426        C  0.45426684  0.90199932  0.69101111     0.08100
C427        C  0.41103785  0.89294212  0.66684221    -0.01700
C428        C  0.40389785  0.86465290  0.63572927    -0.01700
C429        C  0.43624395  0.83941339  0.62938369     0.08200
C430        C  0.47701159  0.84454648  0.65427181    -0.01900
Br431      Br  0.01727016  0.80733941  0.64599618    -0.00500
Br432      Br  0.04512486  0.88732582  0.71562743    -0.00500
Br433      Br  0.34665156  0.85811527  0.60283467    -0.00500
Br434      Br  0.35698530  0.91429854  0.67719708    -0.00500
C435        C  0.39430101  0.53608070  0.83392834    -0.01600
C436        C  0.40844302  0.59413787  0.83601803     0.08100
C437        C  0.43313426  0.63191996  0.80786240    -0.01700
C438        C  0.45009623  0.61367910  0.77943816    -0.01700
C439        C  0.44018072  0.55612367  0.77850112     0.08200
C440        C  0.40667484  0.51668346  0.80451428    -0.01900
Br441      Br  0.36626783  0.93369636  0.79237200    -0.00500
Br442      Br  0.35856599  0.48239561  0.87157262    -0.00500
Br443      Br  0.48980805  0.67087311  0.74434093    -0.00500
Br444      Br  0.44188593  0.70831890  0.80745479    -0.00500
C445        C  0.13919578  0.61138371  0.83415771    -0.01600
C446        C  0.18177064  0.59806846  0.83506330     0.08100
C447        C  0.19551742  0.58102239  0.80471939    -0.01700
C448        C  0.16096265  0.56925182  0.77478220    -0.01700
C449        C  0.11424680  0.57798466  0.77487798     0.08200
C450        C  0.11041372  0.60705180  0.80346743    -0.01900
Br451      Br  0.07650762  0.65278939  0.79946631    -0.00500
Br452      Br  0.11913269  0.63489513  0.87518360    -0.00500
Br453      Br  0.17160176  0.02205645  0.73778783    -0.00500
Br454      Br  0.26240903  0.57487787  0.80399641    -0.00500
C455        C  0.40654347  0.84762509  0.77628508    -0.01600
C456        C  0.46276352  0.89904005  0.77579333     0.08100
C457        C  0.49873534  0.90922896  0.80485043    -0.01700
C458        C  0.47662129  0.88192511  0.83591192    -0.01700
C459        C  0.42008147  0.83464220  0.83700880     0.08200
C460        C  0.38605118  0.81513308  0.80671869    -0.01900
Br461      Br  0.31127619  0.74306172  0.80682460    -0.00500
Br462      Br  0.35409770  0.82023230  0.73774707    -0.00500
Br463      Br  0.52449939  0.90946924  0.87703241    -0.00500
Br464      Br  0.07805715  0.94385545  0.80082566    -0.00500
Zn465      Zn  0.79376336  0.09193777  0.90994275     1.49700
Zn466      Zn  0.84228776  0.17522897  0.97849854     1.49400
Zn467      Zn  0.91687940  0.21024509  0.91058034     1.49100
Zn468      Zn  0.80470911  0.21675236  0.91067171     1.49500
O469        O  0.83914268  0.17310124  0.92871199    -1.83900
O470        O  0.76565421  0.03028204  0.94695719    -0.74500
O471        O  0.93284750  0.22018145  0.99316186    -0.74300
O472        O  0.92757675  0.15628707  0.88268082    -0.73800
O473        O  0.79833086  0.08465086  0.99450567    -0.74500
O474        O  0.83970921  0.07784768  0.87736946    -0.74100
O475        O  0.98141853  0.24489574  0.94507898    -0.74700
O476        O  0.85690385  0.28417559  0.88165258    -0.74100
O477        O  0.79892364  0.21999823  0.99349036    -0.74800
O478        O  0.92856413  0.26991014  0.87619843    -0.74200
O479        O  0.77148832  0.24431201  0.94537982    -0.74700
O480        O  0.74592410  0.16890942  0.87542926    -0.74600
O481        O  0.73008007  0.07915939  0.87731549    -0.74400
C482        C  0.77150121  0.03400115  0.97934682     0.77400
C483        C  0.98092453  0.24376723  0.97735345     0.77900
C484        C  0.89165134  0.10768978  0.86855978     0.76800
C485        C  0.90154298  0.29418466  0.86688762     0.77200
C486        C  0.77360641  0.24332886  0.97773887     0.78400
C487        C  0.72149931  0.11709157  0.86376406     0.77400
Zn488      Zn  0.87588003  0.24906721  0.53106200     1.49700
Zn489      Zn  0.83907119  0.16612488  0.59089503     1.49400
Zn490      Zn  0.75144039  0.12433818  0.53405684     1.49100
Zn491      Zn  0.86929951  0.12264898  0.53280128     1.49500
O492        O  0.83318010  0.16612794  0.54306024    -1.83900
O493        O  0.90616949  0.30019509  0.57469314    -0.74500
O494        O  0.77386393  0.10075743  0.61342203    -0.74300
O495        O  0.73243948  0.18080336  0.50848958    -0.73800
O496        O  0.84665961  0.23433768  0.61137609    -0.74500
O497        O  0.81713499  0.26619292  0.50597688    -0.74100
O498        O  0.71096393  0.10503705  0.57945851    -0.74700
O499        O  0.81201533  0.05011947  0.50542304    -0.74100
O500        O  0.90589884  0.16585353  0.60649026    -0.74800
O501        O  0.72876122  0.04578968  0.50985721    -0.74200
O502        O  0.88371685  0.08848663  0.57598401    -0.74700
O503        O  0.94691705  0.18065390  0.51028101    -0.74600
O504        O  0.94861760  0.26482893  0.50558607    -0.74400
C505        C  0.88569107  0.28605594  0.60444758     0.77400
C506        C  0.72526970  0.09396646  0.60847430     0.77900
C507        C  0.76231478  0.23539116  0.50042115     0.76800
C508        C  0.75755670  0.02329513  0.50076224     0.77200
C509        C  0.90300778  0.11789195  0.60344095     0.78400
C510        C  0.97197210  0.23474320  0.50136607     0.77400
C511        C  0.50966483  0.01379868  0.76652286     0.45700
H512        H  0.51453829  0.01516432  0.79475636    -0.03300
C513        C  0.49809134  0.01183513  0.70180583     0.45800
H514        H  0.49632152  0.51139268  0.67422092    -0.03300
C515        C  0.97282147  0.03960770  0.75441997    -0.17000
C516        C  0.56834142  0.04954989  0.74799009    -0.16800
C517        C  0.97204640  0.44868827  0.75190030    -0.17100
C518        C  0.96971538  0.04065153  0.71956969    -0.17100
C519        C  0.56208634  0.04769110  0.71236248    -0.16700
C520        C  0.96628902  0.44864742  0.71679044    -0.17000
Zn521      Zn  0.69986226  0.29217463  0.41390911     1.49700
Zn522      Zn  0.70051295  0.40912875  0.41511062     1.49400
Zn523      Zn  0.58259014  0.28471370  0.41458997     1.49100
Zn524      Zn  0.66343219  0.32744662  0.48337329     1.49500
O525        O  0.66190551  0.32843289  0.43319544    -1.83900
O526        O  0.76148864  0.34456253  0.38257009    -0.74500
O527        O  0.64745483  0.42384265  0.38888753    -0.74300
O528        O  0.56071878  0.21412058  0.38601503    -0.73800
O529        O  0.76059546  0.42627788  0.38021404    -0.74500
O530        O  0.64802807  0.23197886  0.38029322    -0.74100
O531        O  0.57523433  0.33334493  0.37951231    -0.74700
O532        O  0.57550063  0.28089301  0.49887934    -0.74100
O533        O  0.73295177  0.46944059  0.45181168    -0.74800
O534        O  0.52401219  0.26181170  0.45031220    -0.74200
O535        O  0.70576684  0.41731538  0.49985544    -0.74700
O536        O  0.70952750  0.28546573  0.49872685    -0.74600
O537        O  0.73149522  0.26118914  0.44981640    -0.74400
C538        C  0.77923041  0.39488603  0.37007070     0.77400
C539        C  0.60267946  0.38736907  0.37213396     0.77900
C540        C  0.59553035  0.20521891  0.37099269     0.76800
C541        C  0.52688923  0.26049796  0.48265596     0.77200
C542        C  0.73003292  0.46692321  0.48403906     0.78400
C543        C  0.73295777  0.26238586  0.48229703     0.77400
Zn544      Zn  0.59865250  0.29655525  0.06428190     1.49700
Zn545      Zn  0.71064207  0.28983080  0.06449274     1.49400
Zn546      Zn  0.67649901  0.33692822  0.99798550     1.49100
Zn547      Zn  0.72260145  0.41515868  0.06945762     1.49500
O548        O  0.67777030  0.33560312  0.04787495    -1.83900
O549        O  0.58209301  0.23087221  0.09453694    -0.74500
O550        O  0.74694764  0.26729414  0.02930460    -0.74300
O551        O  0.58642088  0.29356487  0.98146730    -0.73800
O552        O  0.65309372  0.21601442  0.08779886    -0.74500
O553        O  0.53651206  0.26765558  0.02896343    -0.74100
O554        O  0.72013127  0.29301549  0.98156432    -0.74700
O555        O  0.75403926  0.48056076  0.03361543    -0.74100
O556        O  0.76805747  0.33366093  0.10196808    -0.74800
O557        O  0.72199860  0.42865205  0.98507282    -0.74200
O558        O  0.78330532  0.42328673  0.10403864    -0.74700
O559        O  0.67330724  0.42635167  0.10127420    -0.74600
O560        O  0.58680064  0.34613836  0.09488074    -0.74400
C561        C  0.60698597  0.20368224  0.10175444     0.77400
C562        C  0.74550631  0.26949401  0.99700869     0.77900
C563        C  0.53789238  0.26998401  0.99678070     0.76800
C564        C  0.74898764  0.47853161  0.00109359     0.77200
C565        C  0.79185044  0.38409582  0.11571477     0.78400
C566        C  0.62103169  0.39471621  0.10944494     0.77400
C567        C  0.51295517  0.99924138  0.27117141     0.45700
H568        H  0.52536431  0.00781223  0.29763341    -0.03300
C569        C  0.49610031  0.98727016  0.20680622     0.45800
H570        H  0.48978298  0.98236668  0.17870783    -0.03300
C571        C  0.53906290  0.46624194  0.25497710    -0.17000
C572        C  0.94998643  0.46417794  0.26397530    -0.16800
C573        C  0.53650701  0.05807238  0.25348601    -0.17100
C574        C  0.53301905  0.46242583  0.22036486    -0.17100
C575        C  0.93923891  0.45191284  0.22854154    -0.16700
C576        C  0.52714346  0.05289406  0.21867609    -0.17000
C577        C  0.62326236  0.17937913  0.15983115    -0.01600
C578        C  0.58652014  0.16392540  0.13095615     0.08100
C579        C  0.52816897  0.12056378  0.13346677    -0.01700
C580        C  0.50742567  0.09038512  0.16428349    -0.01700
C581        C  0.54505356  0.10124588  0.19264656     0.08200
C582        C  0.60193403  0.15139866  0.19109159    -0.01900
Br583      Br  0.65415743  0.18645976  0.22952270    -0.00500
Br584      Br  0.70411903  0.23959914  0.15699046    -0.00500
Br585      Br  0.92664650  0.04102498  0.16852263    -0.00500
Br586      Br  0.97780282  0.10105513  0.09398214    -0.00500
C587        C  0.83216820  0.39900162  0.21017821    -0.01600
C588        C  0.88535393  0.40371595  0.20966623     0.08100
C589        C  0.89384981  0.38005886  0.18028417    -0.01700
C590        C  0.86868513  0.38053651  0.14880169    -0.01700
C591        C  0.82592493  0.39413367  0.14766107     0.08200
C592        C  0.80544324  0.40034975  0.17906537    -0.01900
Br593      Br  0.73591504  0.40117797  0.18036781    -0.00500
Br594      Br  0.78088102  0.34586881  0.24360668    -0.00500
Br595      Br  0.89261704  0.36128871  0.10793626    -0.00500
Br596      Br  0.91781486  0.32597827  0.18586323    -0.00500
C597        C  0.61443131  0.46950289  0.14224487    -0.01600
C598        C  0.60054721  0.41171236  0.13863778     0.08100
C599        C  0.57293071  0.37131833  0.16528794    -0.01700
C600        C  0.55491682  0.38750376  0.19413329    -0.01700
C601        C  0.56307091  0.44444334  0.19606327     0.08200
C602        C  0.59902789  0.48613006  0.17168619    -0.01900
Br603      Br  0.14309251  0.56781609  0.18277283    -0.00500
Br604      Br  0.65402662  0.52644787  0.10666848    -0.00500
Br605      Br  0.52448824  0.33051295  0.23014842    -0.00500
Br606      Br  0.56219949  0.29388667  0.16323497    -0.00500
C607        C  0.81752942  0.43647341  0.31216564    -0.01600
C608        C  0.82427548  0.41726720  0.34435568     0.08100
C609        C  0.87525004  0.42000154  0.35275263    -0.01700
C610        C  0.91893379  0.44003919  0.32874046    -0.01700
C611        C  0.90905368  0.45141923  0.29357353     0.08200
C612        C  0.86167910  0.45819173  0.28835390    -0.01900
Br613      Br  0.86136470  0.50802420  0.25288372    -0.00500
Br614      Br  0.74462092  0.42502186  0.29838240    -0.00500
Br615      Br  0.99125681  0.46181474  0.35149531    -0.00500
Br616      Br  0.88562123  0.39844915  0.39894977    -0.00500
C617        C  0.60257231  0.11587706  0.30146463    -0.01600
C618        C  0.56101854  0.10990518  0.27708093     0.08100
C619        C  0.53312232  0.14021539  0.28275378    -0.01700
C620        C  0.54207055  0.16976580  0.31411618    -0.01700
C621        C  0.57754745  0.16727924  0.34034401     0.08200
C622        C  0.60663344  0.13867750  0.33377688    -0.01900
Br623      Br  0.65021856  0.12707746  0.36928052    -0.00500
Br624      Br  0.65835841  0.09788106  0.28979008    -0.00500
Br625      Br  0.50726265  0.21515162  0.31984968    -0.00500
Br626      Br  0.99006972  0.14877029  0.24619079    -0.00500
C627        C  0.62805476  0.45103149  0.32043227    -0.01600
C628        C  0.58546199  0.40638329  0.34120679     0.08100
C629        C  0.52785829  0.37325775  0.32898166    -0.01700
C630        C  0.51293783  0.38746356  0.29753750    -0.01700
C631        C  0.55574521  0.43324011  0.27759712     0.08200
C632        C  0.61348771  0.45848358  0.28714301    -0.01900
Br633      Br  0.67131837  0.99484745  0.25496201    -0.00500
Br634      Br  0.70483613  0.50807265  0.33736980    -0.00500
Br635      Br  0.93417015  0.34153605  0.28113531    -0.00500
Br636      Br  0.96690669  0.31562719  0.35714861    -0.00500
C637        C  0.99315056  0.11778021  0.67608377    -0.01600
C638        C  0.95134440  0.07292693  0.69706877     0.08100
C639        C  0.89307728  0.04796044  0.68824512    -0.01700
C640        C  0.87746087  0.05632784  0.65524517    -0.01700
C641        C  0.91990611  0.09708915  0.63318499     0.08200
C642        C  0.97735381  0.12999099  0.64441704    -0.01900
Br643      Br  0.03477319  0.19059747  0.61559933    -0.00500
Br644      Br  0.57172124  0.16815754  0.69098560    -0.00500
Br645      Br  0.79827130  0.00991153  0.64011603    -0.00500
Br646      Br  0.83522090  0.00759187  0.72194692    -0.00500
C647        C  0.70617097  0.11477766  0.66680862    -0.01600
C648        C  0.68702230  0.07864175  0.63737111     0.08100
C649        C  0.62851750  0.03879580  0.63176572    -0.01700
C650        C  0.58952946  0.04268043  0.65145541    -0.01700
C651        C  0.60663953  0.07006703  0.68435637     0.08200
C652        C  0.66611611  0.11261263  0.68942249    -0.01900
Br653      Br  0.69405962  0.17771391  0.72066459    -0.00500
Br654      Br  0.78725068  0.16655102  0.67725017    -0.00500
Br655      Br  0.58291111  0.45211707  0.68022922    -0.00500
Br656      Br  0.60074670  0.98455243  0.59369000    -0.00500
C657        C  0.95175451  0.35405699  0.69012528    -0.01600
C658        C  0.93666831  0.39680929  0.69256028     0.08100
C659        C  0.89778029  0.39529405  0.66740559    -0.01700
C660        C  0.88543027  0.36338856  0.63709550    -0.01700
C661        C  0.90754946  0.32792628  0.63276492     0.08200
C662        C  0.93833749  0.32108875  0.65987135    -0.01900
Br663      Br  0.47041334  0.27062197  0.65262055    -0.00500
Br664      Br  0.49122044  0.33498498  0.72565588    -0.00500
Br665      Br  0.83447176  0.36450664  0.60239202    -0.00500
Br666      Br  0.84800647  0.42139824  0.67779828    -0.00500
C667        C  0.89316507  0.03118299  0.83375762    -0.01600
C668        C  0.90931574  0.08961401  0.83844756     0.08100
C669        C  0.93585764  0.13011382  0.81173488    -0.01700
C670        C  0.95261084  0.11419025  0.78231239    -0.01700
C671        C  0.94320407  0.05691468  0.77940495     0.08200
C672        C  0.90734931  0.01472715  0.80364622    -0.01900
Br673      Br  0.86465662  0.43560926  0.79822957    -0.00500
Br674      Br  0.85178108  0.97322491  0.86852220    -0.00500
Br675      Br  0.98419625  0.17256559  0.74715228    -0.00500
Br676      Br  0.94585186  0.20711266  0.81415696    -0.00500
C677        C  0.64893515  0.12345682  0.82793285    -0.01600
C678        C  0.68649428  0.10337149  0.83198852     0.08100
C679        C  0.69787341  0.07990938  0.80335003    -0.01700
C680        C  0.66372722  0.06637298  0.77308300    -0.01700
C681        C  0.62128491  0.08103564  0.77065623     0.08200
C682        C  0.62114244  0.11696883  0.79644470    -0.01900
Br683      Br  0.59025085  0.16471149  0.78719184    -0.00500
Br684      Br  0.63315874  0.15819304  0.86554422    -0.00500
Br685      Br  0.68416894  0.54245834  0.73980905    -0.00500
Br686      Br  0.76096485  0.06756673  0.80501728    -0.00500
C687        C  0.89765353  0.34769133  0.77776792    -0.01600
C688        C  0.95438456  0.39768579  0.77583676     0.08100
C689        C  0.99447468  0.40460156  0.80175310    -0.01700
C690        C  0.97666325  0.37512299  0.83270816    -0.01700
C691        C  0.91937985  0.33016595  0.83604031     0.08200
C692        C  0.88101203  0.31348628  0.80764209    -0.01900
Br693      Br  0.80579775  0.24270838  0.80915914    -0.00500
Br694      Br  0.83938353  0.32626704  0.74259746    -0.00500
Br695      Br  0.03122500  0.39713857  0.87050765    -0.00500
Br696      Br  0.57510402  0.43762098  0.79112476    -0.00500
Zn697      Zn  0.79540826  0.59398661  0.91234871     1.49700
Zn698      Zn  0.84242764  0.67645689  0.98011732     1.49400
Zn699      Zn  0.91695114  0.71434416  0.91130903     1.49100
Zn700      Zn  0.80358287  0.71753603  0.91215229     1.49500
O701        O  0.83942171  0.67532022  0.93025971    -1.83900
O702        O  0.77007528  0.53204080  0.94903341    -0.74500
O703        O  0.93303376  0.72176994  0.99393548    -0.74300
O704        O  0.92693968  0.66385766  0.88019501    -0.73800
O705        O  0.79949053  0.58580987  0.99669545    -0.74500
O706        O  0.84058300  0.58272119  0.87793888    -0.74100
O707        O  0.98114190  0.74535669  0.94562155    -0.74700
O708        O  0.85335228  0.78368076  0.88136780    -0.74100
O709        O  0.79833470  0.72043019  0.99538803    -0.74800
O710        O  0.92986889  0.77673836  0.87898713    -0.74200
O711        O  0.77173865  0.74551613  0.94721001    -0.74700
O712        O  0.74223996  0.66703546  0.87902545    -0.74600
O713        O  0.72847726  0.57804915  0.88245801    -0.74400
C714        C  0.77442579  0.53529183  0.98144429     0.77400
C715        C  0.98081606  0.74455185  0.97789007     0.77900
C716        C  0.89121876  0.61431450  0.86713025     0.76800
C717        C  0.90062174  0.79787195  0.86838178     0.77200
C718        C  0.77316458  0.74385626  0.97955020     0.78400
C719        C  0.71762107  0.61430549  0.86891199     0.77400
Zn720      Zn  0.87094254  0.75240320  0.52922591     1.49700
Zn721      Zn  0.82699557  0.67461469  0.59092360     1.49400
Zn722      Zn  0.74579251  0.62573719  0.53109376     1.49100
Zn723      Zn  0.86559003  0.62868051  0.53472298     1.49500
O724        O  0.82744206  0.67048792  0.54274907    -1.83900
O725        O  0.90231797  0.80535399  0.57197882    -0.74500
O726        O  0.76233988  0.67682996  0.60780034    -0.74300
O727        O  0.72789320  0.68144045  0.50435744    -0.73800
O728        O  0.89601077  0.74231633  0.61088573    -0.74500
O729        O  0.81183963  0.76816354  0.50414083    -0.74100
O730        O  0.69901367  0.60502078  0.57449268    -0.74700
O731        O  0.81035594  0.55135025  0.50988112    -0.74100
O732        O  0.82238588  0.60787667  0.61323860    -0.74800
O733        O  0.72680229  0.54711743  0.50779231    -0.74200
O734        O  0.88364584  0.60518832  0.57970845    -0.74700
O735        O  0.94262749  0.68436754  0.51122772    -0.74600
O736        O  0.94328182  0.76732732  0.50340123    -0.74400
C737        C  0.91179535  0.79401558  0.60229143     0.77400
C738        C  0.71205896  0.63320263  0.60261777     0.77900
C739        C  0.75743301  0.73648675  0.49743082     0.76800
C740        C  0.75662239  0.52407768  0.50235102     0.77200
C741        C  0.86128924  0.59746819  0.60871375     0.78400
C742        C  0.96712146  0.73741846  0.50059552     0.77400
C743        C  0.50260722  0.50982601  0.76787138     0.45700
H744        H  0.50404881  0.50902815  0.79618649    -0.03300
C745        C  0.49810533  0.51083494  0.70254539     0.45800
H746        H  0.48771127  0.00783358  0.67482889    -0.03300
C747        C  0.96708987  0.53838021  0.75410773    -0.17000
C748        C  0.56339523  0.54625690  0.75260419    -0.16800
C749        C  0.97916256  0.94978639  0.75219277    -0.17100
C750        C  0.96457184  0.53993176  0.71899418    -0.17100
C751        C  0.56092816  0.54491316  0.71732127    -0.16700
C752        C  0.97272122  0.94977255  0.71711535    -0.17000
Zn753      Zn  0.69575557  0.79400607  0.41168384     1.49700
Zn754      Zn  0.69597365  0.90947686  0.41318287     1.49400
Zn755      Zn  0.57809165  0.78429354  0.41375907     1.49100
Zn756      Zn  0.65916695  0.82808654  0.48145454     1.49500
O757        O  0.65771575  0.82919793  0.43150288    -1.83900
O758        O  0.75703357  0.84618358  0.38017696    -0.74500
O759        O  0.63993379  0.92287150  0.38960744    -0.74300
O760        O  0.55538547  0.71265408  0.38603098    -0.73800
O761        O  0.75590518  0.92754407  0.37716220    -0.74500
O762        O  0.64353251  0.73367421  0.37873823    -0.74100
O763        O  0.57104288  0.83151860  0.37829845    -0.74700
O764        O  0.57196081  0.78382969  0.49761710    -0.74100
O765        O  0.73071027  0.96943211  0.44990754    -0.74800
O766        O  0.52000413  0.76437467  0.44927747    -0.74200
O767        O  0.70312576  0.91712368  0.49788910    -0.74700
O768        O  0.70433112  0.78566115  0.49627854    -0.74600
O769        O  0.72730488  0.76301114  0.44713544    -0.74400
C770        C  0.77519223  0.89640755  0.36745660     0.77400
C771        C  0.59688188  0.88573681  0.37184248     0.77900
C772        C  0.59064059  0.70518329  0.37039416     0.76800
C773        C  0.52334607  0.76423511  0.48161456     0.77200
C774        C  0.72840992  0.96667543  0.48214674     0.78400
C775        C  0.72816533  0.76336529  0.47958163     0.77400
Zn776      Zn  0.59687932  0.79951321  0.06390634     1.49700
Zn777      Zn  0.70713419  0.79002906  0.06516847     1.49400
Zn778      Zn  0.67498305  0.83652062  0.99769802     1.49100
Zn779      Zn  0.72162309  0.91667661  0.06803848     1.49500
O780        O  0.67574541  0.83643720  0.04752519    -1.83900
O781        O  0.57842936  0.73398963  0.09517598    -0.74500
O782        O  0.74377692  0.76610705  0.03077297    -0.74300
O783        O  0.58530469  0.79227340  0.98090884    -0.73800
O784        O  0.64922410  0.71824399  0.08993815    -0.74500
O785        O  0.53545625  0.76985724  0.02832643    -0.74100
O786        O  0.71964607  0.79330824  0.98256343    -0.74700
O787        O  0.75178077  0.98060942  0.03173387    -0.74100
O788        O  0.76468264  0.83514918  0.10203377    -0.74800
O789        O  0.71947475  0.92751754  0.98365116    -0.74200
O790        O  0.78347191  0.92622694  0.10178161    -0.74700
O791        O  0.67434683  0.92947323  0.10037613    -0.74600
O792        O  0.58635585  0.85179742  0.09326036    -0.74400
C793        C  0.60297094  0.70678395  0.10336737     0.77400
C794        C  0.74414257  0.76931524  0.99848168     0.77900
C795        C  0.53689296  0.77009652  0.99615693     0.76800
C796        C  0.74630511  0.97772400  0.99926935     0.77200
C797        C  0.79039111  0.88661127  0.11451915     0.78400
C798        C  0.62192700  0.89952363  0.10830348     0.77400
C799        C  0.51395689  0.49905286  0.27152342     0.45700
H800        H  0.52716041  0.50776598  0.29764663    -0.03300
C801        C  0.49564156  0.48643484  0.20739871     0.45800
H802        H  0.48883931  0.48144736  0.17933331    -0.03300
C803        C  0.53833431  0.96654966  0.25468093    -0.17000
C804        C  0.94931154  0.96503992  0.26285836    -0.16800
C805        C  0.53671315  0.55765613  0.25385817    -0.17100
C806        C  0.53318898  0.96320904  0.22011353    -0.17100
C807        C  0.93952702  0.95331628  0.22736614    -0.16700
C808        C  0.52666871  0.55214009  0.21913731    -0.17000
C809        C  0.61821975  0.68566450  0.16250001    -0.01600
C810        C  0.58243917  0.66825770  0.13311689     0.08100
C811        C  0.52551326  0.62114095  0.13463830    -0.01700
C812        C  0.50546817  0.58953167  0.16509493    -0.01700
C813        C  0.54351991  0.60054142  0.19330407     0.08200
C814        C  0.59933632  0.65268761  0.19255393    -0.01900
Br815      Br  0.65524782  0.68061827  0.22958228    -0.00500
Br816      Br  0.69422063  0.75595751  0.16171893    -0.00500
Br817      Br  0.92459121  0.53727417  0.16876162    -0.00500
Br818      Br  0.97673909  0.59825528  0.09421418    -0.00500
C819        C  0.83313423  0.90448442  0.20844863    -0.01600
C820        C  0.88537810  0.90714787  0.20780025     0.08100
C821        C  0.89306818  0.88290234  0.17832933    -0.01700
C822        C  0.86673362  0.88222609  0.14708051    -0.01700
C823        C  0.82535153  0.89764125  0.14606741     0.08200
C824        C  0.80675079  0.90656412  0.17741657    -0.01900
Br825      Br  0.74026001  0.91287758  0.17892105    -0.00500
Br826      Br  0.78083657  0.85266303  0.24197388    -0.00500
Br827      Br  0.88738188  0.85949168  0.10609245    -0.00500
Br828      Br  0.92253953  0.83341220  0.18302631    -0.00500
C829        C  0.61974465  0.97487321  0.14381909    -0.01600
C830        C  0.60287801  0.91642071  0.13825033     0.08100
C831        C  0.57413807  0.87458108  0.16408509    -0.01700
C832        C  0.55630407  0.88962423  0.19340580    -0.01700
C833        C  0.56496993  0.94661209  0.19635610     0.08200
C834        C  0.60356783  0.98992651  0.17361165    -0.01900
Br835      Br  0.15007592  0.07013881  0.18833145    -0.00500
Br836      Br  0.66499096  0.03497256  0.11087400    -0.00500
Br837      Br  0.52644147  0.83142809  0.22882913    -0.00500
Br838      Br  0.56227961  0.79683353  0.16057290    -0.00500
C839        C  0.81804276  0.94235257  0.31065245    -0.01600
C840        C  0.82128317  0.91853147  0.34208265     0.08100
C841        C  0.86977225  0.91583102  0.34989571    -0.01700
C842        C  0.91439986  0.93633686  0.32649294    -0.01700
C843        C  0.90734727  0.95187576  0.29190786     0.08200
C844        C  0.86259123  0.96282728  0.28709454    -0.01900
Br845      Br  0.86578083  0.01465641  0.25182048    -0.00500
Br846      Br  0.74851856  0.93810822  0.29696079    -0.00500
Br847      Br  0.98540302  0.95538078  0.34966223    -0.00500
Br848      Br  0.87647379  0.88654264  0.39449161    -0.00500
C849        C  0.59998844  0.61530411  0.30291704    -0.01600
C850        C  0.55966964  0.60935992  0.27750173     0.08100
C851        C  0.53099274  0.63924531  0.28226349    -0.01700
C852        C  0.53902575  0.66933575  0.31327420    -0.01700
C853        C  0.57280422  0.66640523  0.34033029     0.08200
C854        C  0.60165441  0.63730656  0.33506490    -0.01900
Br855      Br  0.64202621  0.62478859  0.37225787    -0.00500
Br856      Br  0.65590057  0.59615624  0.29372891    -0.00500
Br857      Br  0.50585305  0.71642058  0.31753716    -0.00500
Br858      Br  0.98523300  0.64394580  0.24592955    -0.00500
C859        C  0.62377845  0.95045035  0.32104797    -0.01600
C860        C  0.58047823  0.90442403  0.34068951     0.08100
C861        C  0.52385731  0.86978027  0.32696283    -0.01700
C862        C  0.51024096  0.88521983  0.29552818    -0.01700
C863        C  0.55389137  0.93244401  0.27684445     0.08200
C864        C  0.61106852  0.95786306  0.28746460    -0.01900
Br865      Br  0.67224203  0.49809698  0.25382238    -0.00500
Br866      Br  0.69870882  0.00904017  0.33968025    -0.00500
Br867      Br  0.93188473  0.84037201  0.27776462    -0.00500
Br868      Br  0.96132774  0.80874532  0.35320370    -0.00500
C869        C  0.97118628  0.60426372  0.67065309    -0.01600
C870        C  0.93749316  0.56522940  0.69657854     0.08100
C871        C  0.87816570  0.54540646  0.69630574    -0.01700
C872        C  0.85227970  0.55319652  0.66679336    -0.01700
C873        C  0.88611829  0.58457704  0.63865194     0.08200
C874        C  0.94622058  0.61313673  0.64168384    -0.01900
Br875      Br  0.99647889  0.66894393  0.60770501    -0.00500
Br876      Br  0.55398796  0.65296770  0.67592747    -0.00500
Br877      Br  0.76957339  0.51666088  0.66436229    -0.00500
Br878      Br  0.82922571  0.50433210  0.73395861    -0.00500
C879        C  0.67942331  0.65116075  0.65806900    -0.01600
C880        C  0.67209995  0.61193732  0.63157745     0.08100
C881        C  0.63556440  0.55105544  0.63693124    -0.01700
C882        C  0.60768697  0.53065015  0.66789613    -0.01700
C883        C  0.60947335  0.56915621  0.69267703     0.08200
C884        C  0.65065723  0.62970696  0.68913041    -0.01900
Br885      Br  0.66862620  0.68450186  0.72586354    -0.00500
Br886      Br  0.72398083  0.73510076  0.65105909    -0.00500
Br887      Br  0.53748206  0.05150611  0.62136810    -0.00500
Br888      Br  0.62424230  0.49312817  0.60334717    -0.00500
C889        C  0.98506403  0.87639858  0.68452904    -0.01600
C890        C  0.95237273  0.90126890  0.69147429     0.08100
C891        C  0.90878661  0.89227227  0.66758534    -0.01700
C892        C  0.90102908  0.86381838  0.63643561    -0.01700
C893        C  0.93282322  0.83811893  0.62987342     0.08200
C894        C  0.97415086  0.84349867  0.65435916    -0.01900
Br895      Br  0.52037265  0.80826656  0.64661668    -0.00500
Br896      Br  0.54649681  0.88785694  0.71606870    -0.00500
Br897      Br  0.84389117  0.85766601  0.60364942    -0.00500
Br898      Br  0.85484213  0.91345192  0.67848629    -0.00500
C899        C  0.89411915  0.53718541  0.83497170    -0.01600
C900        C  0.90775029  0.59501608  0.83716280     0.08100
C901        C  0.93226541  0.63300761  0.80909398    -0.01700
C902        C  0.94944893  0.61520127  0.78057790    -0.01700
C903        C  0.93968842  0.55769425  0.77935209     0.08200
C904        C  0.90653853  0.51809028  0.80543510    -0.01900
Br905      Br  0.86477919  0.93327996  0.79217021    -0.00500
Br906      Br  0.85880325  0.48341125  0.87263229    -0.00500
Br907      Br  0.98911541  0.67299059  0.74577450    -0.00500
Br908      Br  0.94029505  0.70907028  0.80893094    -0.00500
C909        C  0.63774425  0.61105463  0.83649721    -0.01600
C910        C  0.68027615  0.59769015  0.83832559     0.08100
C911        C  0.69545927  0.58109570  0.80844471    -0.01700
C912        C  0.66245253  0.56976594  0.77794304    -0.01700
C913        C  0.61493119  0.57731341  0.77709206     0.08200
C914        C  0.60967592  0.60609472  0.80535092    -0.01900
Br915      Br  0.57654803  0.65233400  0.79987270    -0.00500
Br916      Br  0.61760535  0.63646068  0.87670371    -0.00500
Br917      Br  0.67251057  0.02267032  0.73780522    -0.00500
Br918      Br  0.76315888  0.57610861  0.80898717    -0.00500
C919        C  0.90545485  0.84721603  0.77709416    -0.01600
C920        C  0.96173957  0.89851157  0.77634471     0.08100
C921        C  0.99801684  0.90871394  0.80524846    -0.01700
C922        C  0.97625154  0.88159508  0.83641679    -0.01700
C923        C  0.91959119  0.83458360  0.83780890     0.08200
C924        C  0.88513570  0.81507649  0.80767196    -0.01900
Br925      Br  0.81001338  0.74343357  0.80818214    -0.00500
Br926      Br  0.85291461  0.81924466  0.73860113    -0.00500
Br927      Br  0.02475819  0.90912972  0.87729683    -0.00500
Br928      Br  0.57886646  0.94455249  0.80083257    -0.00500
loop_ 
_geom_bond_atom_site_label_1 
_geom_bond_atom_site_label_2 
_geom_bond_distance 
_geom_bond_site_symmetry_2 
_ccdc_geom_bond_type 
Zn1           O5   1.988       .  S
Zn1           O6   2.027       .  S
Zn1          O10   2.001       .  S
Zn1          O17   2.016       .  S
Zn2           O5   1.954       .  S
Zn2           O7   2.174       .  S
Zn2           O9   2.161       .  S
Zn2          O13   2.195       .  S
Zn3           O5   1.970       .  S
Zn3           O8   1.977       .  S
Zn3          O11   1.994       .  S
Zn3          O14   1.977       .  S
Zn4           O5   1.975       .  S
Zn4          O12   1.983       .  S
Zn4          O15   2.016       .  S
Zn4          O16   1.971       .  S
O6           C18   1.275       .  A
O7           C19   1.298       .  A
O8           C20   1.266       .  A
O9           C18   1.296       .  A
O10          C20   1.269       .  A
O11          C19   1.267       .  A
O12          C21   1.267       .  A
O13          C22   1.300       .  A
O14          C21   1.267       .  A
O15          C22   1.270       .  A
O16          C23   1.267       .  A
O17          C23   1.271       .  A
C18         C332   1.507   1_545  S
C19         C563   1.504       .  S
C20         C204   1.474       .  S
C21         C227   1.464       .  S
C22          C98   1.515       .  S
C23         C214   1.477       .  S
Zn24         O28   1.950       .  S
Zn24         O29   2.063       .  S
Zn24         O33   2.117       .  S
Zn24         O40   2.091       .  S
Zn25         O28   1.881       .  S
Zn25         O30   1.949       .  S
Zn25         O32   1.919       .  S
Zn25         O36   1.922       .  S
Zn26         O28   1.931       .  S
Zn26         O31   2.091       .  S
Zn26         O34   2.044       .  S
Zn26         O37   2.092       .  S
Zn27         O28   1.948       .  S
Zn27         O35   2.030       .  S
Zn27         O38   2.044       .  S
Zn27         O39   2.079       .  S
O29          C41   1.275       .  A
O30          C42   1.259       .  A
O31          C43   1.286       .  A
O32          C41   1.258       .  A
O33          C43   1.290       .  A
O34          C42   1.277       .  A
O35          C44   1.279       .  A
O36          C45   1.256       .  A
O37          C44   1.286       .  A
O38          C45   1.268       .  A
O39          C46   1.284       .  A
O40          C46   1.287       .  A
C41         C197   1.461       .  S
C42         C184   1.472       .  S
C43          C79   1.505       .  S
C44         C310   1.480   1_545  S
C45         C177   1.456       .  S
C46         C541   1.493       .  S
C47          H48   1.111       .  S
C47          C52   1.570       .  S
C47         C749   1.559   1_445  S
C47         C515   1.560   1_455  S
C49         H282   1.079       .  S
C49          C55   1.537   1_655  S
C49         C518   1.530       .  S
C49         C752   1.532   1_545  S
H50         C281   1.111       .  S
C51         C511   1.559       .  S
C51          C54   1.369       .  D
C51         C207   1.519       .  S
C52          C55   1.402       .  D
C52         C217   1.503       .  S
C53         C743   1.555       .  S
C53          C56   1.382       .  D
C53         C224   1.506       .  S
C54         C513   1.531       .  S
C54         C174   1.487       .  S
C55         C187   1.536       .  S
C56         C745   1.550       .  S
C56         C194   1.512       .  S
Zn57         O61   1.942       .  S
Zn57         O62   1.977       .  S
Zn57         O66   1.969       .  S
Zn57         O73   2.025       .  S
Zn58         O61   1.975       .  S
Zn58         O63   1.963       .  S
Zn58         O65   2.036       .  S
Zn58         O69   1.991       .  S
Zn59         O61   1.969       .  S
Zn59         O64   2.011       .  S
Zn59         O67   1.966       .  S
Zn59         O70   2.004       .  S
Zn60         O61   1.971       .  S
Zn60         O68   2.152       .  S
Zn60         O71   2.154       .  S
Zn60         O72   2.174       .  S
O62          C74   1.267       .  A
O63          C75   1.262       .  A
O64          C76   1.267       .  A
O65          C74   1.272       .  A
O66          C76   1.267       .  A
O67          C75   1.265       .  A
O68          C77   1.293       .  A
O69          C78   1.269       .  A
O70          C77   1.271       .  A
O71          C78   1.292       .  A
O72          C79   1.296       .  A
O73          C79   1.274       .  A
C74         C144   1.478       .  S
C75         C164   1.472       .  S
C76         C157   1.482       .  S
C77         C510   1.493   1_455  S
C78         C276   1.491       .  S
Zn80         O84   1.973       .  S
Zn80         O85   1.967       .  S
Zn80         O89   1.980       .  S
Zn80         O96   1.964       .  S
Zn81         O84   1.973       .  S
Zn81         O86   2.007       .  S
Zn81         O88   1.995       .  S
Zn81         O92   1.991       .  S
Zn82         O84   1.959   1_556  S
Zn82         O87   2.183       .  S
Zn82         O90   2.199       .  S
Zn82         O93   2.152       .  S
Zn83         O84   1.998       .  S
Zn83         O91   2.057       .  S
Zn83         O94   2.043       .  S
Zn83         O95   2.012       .  S
O85          C97   1.265       .  A
O86          C98   1.269   1_554  A
O87          C99   1.298       .  A
O88          C97   1.269       .  A
O89          C99   1.265   1_554  A
O90          C98   1.300       .  A
O91         C100   1.279   1_554  A
O92         C101   1.269       .  A
O93         C100   1.295       .  A
O94         C101   1.274       .  A
O95         C102   1.271       .  A
O96         C102   1.264       .  A
C97         C114   1.464       .  S
C99         C483   1.504   1_455  S
C100        C250   1.511       .  S
C101        C127   1.481       .  S
C102        C134   1.473       .  S
C103        H104   1.072   1_565  S
C103        C109   1.522   1_565  S
C103        C804   1.525   1_455  S
C103        C339   1.542       .  S
C105        H106   1.110       .  S
C105        C112   1.567   1_665  S
C105        C807   1.584       .  S
C105        C342   1.548   1_655  S
C107        C335   1.539       .  S
C107        C110   1.362       .  D
C107        C167   1.475       .  S
C108        C799   1.523       .  S
C108        C111   1.420       .  D
C108        C147   1.548       .  S
C109        C112   1.378       .  D
C109        C154   1.501       .  S
C110        C337   1.549   1_455  S
C110        C137   1.521       .  S
C111        C801   1.584       .  S
C111        C124   1.530       .  S
C112        C117   1.515       .  S
C113        C114   1.405       .  A
C113        C118   1.403       .  A
C113       Br120   1.939       .  S
C114        C115   1.400       .  A
C115        C116   1.404       .  A
C115       Br586   1.933   1_455  S
C116        C117   1.419       .  A
C116       Br585   1.917   1_455  S
C117        C118   1.425       .  A
C118       Br119   1.921       .  S
Br121       C580   1.916       .  S
Br122       C579   1.933       .  S
C123        C124   1.401       .  A
C123        C128   1.417       .  A
C123       Br130   1.917       .  S
C124        C125   1.408       .  A
C125        C126   1.401       .  A
C125       Br132   1.898       .  S
C126        C127   1.405       .  A
C126       Br131   1.930       .  S
C127        C128   1.419       .  A
C128       Br129   1.927       .  S
C133        C134   1.398       .  A
C133        C138   1.400       .  A
C133       Br140   1.935       .  S
C134        C135   1.413       .  A
C135        C136   1.412       .  A
C135       Br142   1.944       .  S
C136        C137   1.427       .  A
C136       Br141   1.924       .  S
C137        C138   1.415       .  A
C138       Br603   1.901       .  S
Br139       C602   1.901       .  S
C143        C144   1.404       .  A
C143        C148   1.411       .  A
C143       Br150   1.921       .  S
C144        C145   1.394       .  A
C145        C146   1.410       .  A
C145       Br152   1.955       .  S
C146        C147   1.459       .  A
C146       Br151   1.941       .  S
C147        C148   1.417       .  A
C148       Br149   1.924       .  S
C153        C154   1.411       .  A
C153        C158   1.392       .  A
C153       Br160   1.908       .  S
C154        C155   1.409       .  A
C155        C156   1.417       .  A
C155       Br626   1.922   1_455  S
C156        C157   1.422       .  A
C156       Br161   1.929       .  S
C157        C158   1.405       .  A
C158       Br159   1.940       .  S
Br162       C619   1.922       .  S
C163        C164   1.421       .  A
C163        C168   1.398       .  A
C163       Br170   1.936       .  S
C164        C165   1.413       .  A
C165        C166   1.401       .  A
C165       Br636   1.942   1_455  S
C166        C167   1.416       .  A
C166       Br635   1.937   1_455  S
C167        C168   1.395       .  A
C168       Br401   1.929       .  S
Br169       C400   1.926       .  S
Br171       C630   1.937       .  S
Br172       C629   1.942       .  S
C173        C174   1.419       .  A
C173        C178   1.397       .  A
C173       Br644   1.920       .  S
C174        C175   1.403       .  A
C175        C176   1.406       .  A
C175       Br182   1.928       .  S
C176        C177   1.411       .  A
C176       Br181   1.925       .  S
C177        C178   1.398       .  A
C178       Br179   1.938       .  S
Br180       C637   1.919   1_455  S
C183        C184   1.415       .  A
C183        C188   1.413       .  A
C183       Br190   1.934       .  S
C184        C185   1.392       .  A
C185        C186   1.390       .  A
C185       Br192   1.935   1_545  S
C186        C187   1.433       .  A
C186       Br423   1.938       .  S
C187        C188   1.423       .  A
C188       Br189   1.930       .  S
Br191       C418   1.893       .  S
C193        C194   1.418       .  A
C193        C198   1.408       .  A
C193       Br664   1.931       .  S
C194        C195   1.417       .  A
C195        C196   1.398       .  A
C195       Br202   1.897       .  S
C196        C197   1.392       .  A
C196       Br201   1.936       .  S
C197        C198   1.411       .  A
C198       Br663   1.925       .  S
Br199       C662   1.927       .  S
Br200       C657   1.931       .  S
C203        C204   1.400       .  A
C203        C208   1.404       .  A
C203       Br210   1.934   1_545  S
C204        C205   1.411       .  A
C205        C206   1.409       .  A
C205       Br212   1.942       .  S
C206        C207   1.426       .  A
C206       Br211   1.922       .  S
C207        C208   1.416       .  A
C208       Br441   1.907   1_545  S
Br209       C440   1.900       .  S
C213        C214   1.403       .  A
C213        C218   1.396       .  A
C213       Br220   1.936       .  S
C214        C215   1.418       .  A
C215        C216   1.416       .  A
C215       Br222   1.932       .  S
C216        C217   1.418       .  A
C216       Br453   1.929       .  S
C217        C218   1.410       .  A
C218       Br219   1.907       .  S
Br221       C448   1.924       .  S
C223        C224   1.418       .  A
C223        C228   1.409       .  A
C223       Br230   1.925       .  S
C224        C225   1.413       .  A
C225        C226   1.394       .  A
C225       Br696   1.904       .  S
C226        C227   1.396       .  A
C226       Br231   1.934       .  S
C227        C228   1.413       .  A
C228       Br229   1.929       .  S
Br232       C689   1.900   1_455  S
Zn233       O237   1.982       .  S
Zn233       O238   2.033       .  S
Zn233       O242   1.989       .  S
Zn233       O249   2.003       .  S
Zn234       O237   1.957       .  S
Zn234       O239   2.167       .  S
Zn234       O241   2.166       .  S
Zn234       O245   2.194       .  S
Zn235       O237   1.976       .  S
Zn235       O240   1.970       .  S
Zn235       O243   1.991       .  S
Zn235       O246   1.972       .  S
Zn236       O237   1.974       .  S
Zn236       O244   1.988       .  S
Zn236       O247   2.018       .  S
Zn236       O248   1.968       .  S
O238        C250   1.275       .  A
O239        C251   1.298       .  A
O240        C252   1.264       .  A
O241        C250   1.295       .  A
O242        C252   1.268       .  A
O243        C251   1.267       .  A
O244        C253   1.267       .  A
O245        C254   1.300       .  A
O246        C253   1.267       .  A
O247        C254   1.271       .  A
O248        C255   1.267       .  A
O249        C255   1.269       .  A
C251        C795   1.500       .  S
C252        C436   1.470       .  S
C253        C459   1.464       .  S
C254        C330   1.516       .  S
C255        C446   1.467       .  S
Zn256       O260   1.942       .  S
Zn256       O261   2.057       .  S
Zn256       O265   2.108       .  S
Zn256       O272   2.094       .  S
Zn257       O260   1.903       .  S
Zn257       O262   1.955       .  S
Zn257       O264   1.946       .  S
Zn257       O268   1.933       .  S
Zn258       O260   1.934       .  S
Zn258       O263   2.065       .  S
Zn258       O266   2.041       .  S
Zn258       O269   2.116       .  S
Zn259       O260   1.937       .  S
Zn259       O267   2.043       .  S
Zn259       O270   2.009       .  S
Zn259       O271   2.064       .  S
O261        C273   1.278       .  A
O262        C274   1.263       .  A
O263        C275   1.282       .  A
O264        C273   1.261       .  A
O265        C275   1.289       .  A
O266        C274   1.278       .  A
O267        C276   1.279       .  A
O268        C277   1.260       .  A
O269        C276   1.289       .  A
O270        C277   1.272       .  A
O271        C278   1.281       .  A
O272        C278   1.287       .  A
C273        C429   1.476       .  S
C274        C416   1.488       .  S
C275        C311   1.495       .  S
C277        C409   1.472       .  S
C278        C773   1.491       .  S
C279        H280   1.111       .  S
C279        C517   1.553   1_455  S
C279        C284   1.557       .  S
C279        C747   1.553   1_455  S
C281        C287   1.562   1_655  S
C281        C750   1.558       .  S
C281        C520   1.557       .  S
C283        C743   1.554       .  S
C283        C286   1.380       .  D
C283        C439   1.513       .  S
C284        C287   1.386       .  D
C284        C449   1.515       .  S
C285        C511   1.559   1_565  S
C285        C288   1.382       .  D
C285        C456   1.523       .  S
C286        C745   1.556       .  S
C286        C406   1.512       .  S
C287        C419   1.524       .  S
C288        C513   1.531   1_565  S
C288        C426   1.500       .  S
Zn289       O293   1.930       .  S
Zn289       O294   1.974       .  S
Zn289       O298   1.955       .  S
Zn289       O305   2.009       .  S
Zn290       O293   1.970       .  S
Zn290       O295   1.962       .  S
Zn290       O297   2.057       .  S
Zn290       O301   1.980       .  S
Zn291       O293   1.966       .  S
Zn291       O296   2.008       .  S
Zn291       O299   1.949       .  S
Zn291       O302   2.004       .  S
Zn292       O293   1.961       .  S
Zn292       O300   2.157       .  S
Zn292       O303   2.129       .  S
Zn292       O304   2.156       .  S
O294        C306   1.266       .  A
O295        C307   1.263       .  A
O296        C308   1.267       .  A
O297        C306   1.273       .  A
O298        C308   1.266       .  A
O299        C307   1.263       .  A
O300        C309   1.293       .  A
O301        C310   1.268       .  A
O302        C309   1.271       .  A
O303        C310   1.289       .  A
O304        C311   1.294       .  A
O305        C311   1.273       .  A
C306        C376   1.488       .  S
C307        C396   1.465       .  S
C308        C389   1.475       .  S
C309        C742   1.495   1_455  S
Zn312       O316   1.971       .  S
Zn312       O317   1.973       .  S
Zn312       O321   1.968       .  S
Zn312       O328   1.970       .  S
Zn313       O316   1.969       .  S
Zn313       O318   2.018       .  S
Zn313       O320   2.001       .  S
Zn313       O324   1.986       .  S
Zn314       O316   1.957   1_556  S
Zn314       O319   2.173       .  S
Zn314       O322   2.193       .  S
Zn314       O325   2.149       .  S
Zn315       O316   1.996       .  S
Zn315       O323   2.042       .  S
Zn315       O326   2.028       .  S
Zn315       O327   2.006       .  S
O317        C329   1.265       .  A
O318        C330   1.270   1_554  A
O319        C331   1.297       .  A
O320        C329   1.270       .  A
O321        C331   1.264   1_554  A
O322        C330   1.299       .  A
O323        C332   1.277   1_554  A
O324        C333   1.270       .  A
O325        C332   1.295       .  A
O326        C333   1.272       .  A
O327        C334   1.269       .  A
O328        C334   1.265       .  A
C329        C346   1.465       .  S
C331        C715   1.498   1_455  S
C333        C359   1.476       .  S
C334        C366   1.474       .  S
C335        H336   1.064       .  S
C335        C341   1.519       .  S
C335        C572   1.522   1_455  S
C337        H338   1.109       .  S
C337        C575   1.584       .  S
C337        C344   1.567   1_655  S
C339        C342   1.359       .  D
C339        C399   1.469       .  S
C340        C567   1.525       .  S
C340        C343   1.417       .  D
C340        C379   1.546       .  S
C341        C344   1.377       .  D
C341        C386   1.502       .  S
C342        C369   1.521       .  S
C343        C569   1.583       .  S
C343        C356   1.528       .  S
C344        C349   1.514       .  S
C345        C346   1.404       .  A
C345        C350   1.404       .  A
C345       Br352   1.935       .  S
C346        C347   1.398       .  A
C347        C348   1.405       .  A
C347       Br818   1.931   1_455  S
C348        C349   1.420       .  A
C348       Br817   1.918   1_455  S
C349        C350   1.427       .  A
C350       Br351   1.924       .  S
Br353       C812   1.917       .  S
Br354       C811   1.932       .  S
C355        C356   1.401       .  A
C355        C360   1.414       .  A
C355       Br362   1.918       .  S
C356        C357   1.410       .  A
C357        C358   1.401       .  A
C357       Br364   1.897       .  S
C358        C359   1.403       .  A
C358       Br363   1.932       .  S
C359        C360   1.418       .  A
C360       Br361   1.928       .  S
C365        C366   1.401       .  A
C365        C370   1.403       .  A
C365       Br372   1.934   1_565  S
C366        C367   1.412       .  A
C367        C368   1.410       .  A
C367       Br374   1.944       .  S
C368        C369   1.427       .  A
C368       Br373   1.925       .  S
C369        C370   1.414       .  A
C370       Br835   1.904   1_565  S
Br371       C834   1.905   1_545  S
C375        C376   1.405       .  A
C375        C380   1.414       .  A
C375       Br382   1.914       .  S
C376        C377   1.399       .  A
C377        C378   1.410       .  A
C377       Br384   1.954       .  S
C378        C379   1.452       .  A
C378       Br383   1.935       .  S
C379        C380   1.417       .  A
C380       Br381   1.923   1_565  S
C385        C386   1.414       .  A
C385        C390   1.390       .  A
C385       Br392   1.909       .  S
C386        C387   1.411       .  A
C387        C388   1.416       .  A
C387       Br858   1.922   1_455  S
C388        C389   1.419       .  A
C388       Br393   1.926       .  S
C389        C390   1.401       .  A
C390       Br391   1.941       .  S
Br394       C851   1.922       .  S
C395        C396   1.418       .  A
C395        C400   1.392       .  A
C395       Br402   1.936   1_565  S
C396        C397   1.415       .  A
C397        C398   1.400       .  A
C397       Br868   1.942   1_455  S
C398        C399   1.415       .  A
C398       Br867   1.937   1_455  S
C399        C400   1.392       .  A
Br403       C862   1.937       .  S
Br404       C861   1.942       .  S
C405        C406   1.411       .  A
C405        C410   1.394       .  A
C405       Br876   1.901       .  S
C406        C407   1.423       .  A
C407        C408   1.414       .  A
C407       Br414   1.928       .  S
C408        C409   1.416       .  A
C408       Br413   1.940       .  S
C409        C410   1.406       .  A
C410       Br411   1.948       .  S
Br412       C869   1.902   1_455  S
C415        C416   1.420       .  A
C415        C420   1.418       .  A
C415       Br422   1.933       .  S
C416        C417   1.407       .  A
C417        C418   1.401       .  A
C417       Br424   1.951       .  S
C418        C419   1.415       .  A
C419        C420   1.421       .  A
C420       Br421   1.931       .  S
C425        C426   1.411       .  A
C425        C430   1.413       .  A
C425       Br896   1.917       .  S
C426        C427   1.415       .  A
C427        C428   1.399       .  A
C427       Br434   1.913       .  S
C428        C429   1.406       .  A
C428       Br433   1.940       .  S
C429        C430   1.415       .  A
C430       Br895   1.933       .  S
Br431       C894   1.929   1_455  S
Br432       C889   1.917   1_455  S
C435        C436   1.397       .  A
C435        C440   1.396       .  A
C435       Br442   1.939       .  S
C436        C437   1.414       .  A
C437        C438   1.412       .  A
C437       Br444   1.938       .  S
C438        C439   1.423       .  A
C438       Br443   1.926       .  S
C439        C440   1.417       .  A
C445        C446   1.395       .  A
C445        C450   1.392       .  A
C445       Br452   1.936       .  S
C446        C447   1.413       .  A
C447        C448   1.416       .  A
C447       Br454   1.935       .  S
C448        C449   1.424       .  A
C449        C450   1.414       .  A
C450       Br451   1.902       .  S
C455        C456   1.425       .  A
C455        C460   1.414       .  A
C455       Br462   1.917       .  S
C456        C457   1.416       .  A
C457        C458   1.394       .  A
C457       Br928   1.891       .  S
C458        C459   1.391       .  A
C458       Br463   1.937       .  S
C459        C460   1.411       .  A
C460       Br461   1.935       .  S
Br464       C921   1.891   1_455  S
Zn465       O469   1.988       .  S
Zn465       O470   2.026       .  S
Zn465       O474   1.999       .  S
Zn465       O481   2.015       .  S
Zn466       O469   1.954       .  S
Zn466       O471   2.174       .  S
Zn466       O473   2.160       .  S
Zn466       O477   2.193       .  S
Zn467       O469   1.970       .  S
Zn467       O472   1.977       .  S
Zn467       O475   1.995       .  S
Zn467       O478   1.981       .  S
Zn468       O469   1.975       .  S
Zn468       O476   1.981       .  S
Zn468       O479   2.016       .  S
Zn468       O480   1.969       .  S
O470        C482   1.275       .  A
O471        C483   1.298       .  A
O472        C484   1.266       .  A
O473        C482   1.295       .  A
O474        C484   1.268       .  A
O475        C483   1.267       .  A
O476        C485   1.267       .  A
O477        C486   1.300       .  A
O478        C485   1.268       .  A
O479        C486   1.270       .  A
O480        C487   1.267       .  A
O481        C487   1.271       .  A
C482        C796   1.507   1_545  S
C484        C668   1.473       .  S
C485        C691   1.465       .  S
C486        C562   1.514       .  S
C487        C678   1.476       .  S
Zn488       O492   1.949       .  S
Zn488       O493   2.066       .  S
Zn488       O497   2.116       .  S
Zn488       O504   2.096       .  S
Zn489       O492   1.880       .  S
Zn489       O494   1.948       .  S
Zn489       O496   1.917       .  S
Zn489       O500   1.924       .  S
Zn490       O492   1.928       .  S
Zn490       O495   2.089       .  S
Zn490       O498   2.042       .  S
Zn490       O501   2.090       .  S
Zn491       O492   1.947       .  S
Zn491       O499   2.030       .  S
Zn491       O502   2.045       .  S
Zn491       O503   2.076       .  S
O493        C505   1.276       .  A
O494        C506   1.258       .  A
O495        C507   1.285       .  A
O496        C505   1.257       .  A
O497        C507   1.290       .  A
O498        C506   1.277       .  A
O499        C508   1.279       .  A
O500        C509   1.257       .  A
O501        C508   1.286       .  A
O502        C509   1.268       .  A
O503        C510   1.284       .  A
O504        C510   1.288       .  A
C505        C661   1.461       .  S
C506        C648   1.471       .  S
C507        C543   1.504       .  S
C508        C774   1.479   1_545  S
C509        C641   1.456       .  S
C511        H512   1.111       .  S
C511        C516   1.569       .  S
C513        H746   1.080       .  S
C513        C519   1.536       .  S
H514        C745   1.112       .  S
C515        C518   1.369       .  D
C515        C671   1.519       .  S
C516        C519   1.402       .  D
C516        C681   1.502       .  S
C517        C520   1.382       .  D
C517        C688   1.512       .  S
C518        C638   1.487       .  S
C519        C651   1.534       .  S
C520        C658   1.513       .  S
Zn521       O525   1.941       .  S
Zn521       O526   1.979       .  S
Zn521       O530   1.969       .  S
Zn521       O537   2.027       .  S
Zn522       O525   1.974       .  S
Zn522       O527   1.965       .  S
Zn522       O529   2.033       .  S
Zn522       O533   1.985       .  S
Zn523       O525   1.967       .  S
Zn523       O528   2.005       .  S
Zn523       O531   1.967       .  S
Zn523       O534   2.001       .  S
Zn524       O525   1.969       .  S
Zn524       O532   2.154       .  S
Zn524       O535   2.148       .  S
Zn524       O536   2.170       .  S
O526        C538   1.267       .  A
O527        C539   1.262       .  A
O528        C540   1.267       .  A
O529        C538   1.271       .  A
O530        C540   1.267       .  A
O531        C539   1.265       .  A
O532        C541   1.293       .  A
O533        C542   1.269       .  A
O534        C541   1.271       .  A
O535        C542   1.292       .  A
O536        C543   1.296       .  A
O537        C543   1.275       .  A
C538        C608   1.478       .  S
C539        C628   1.472       .  S
C540        C621   1.480       .  S
C542        C740   1.488       .  S
Zn544       O548   1.973       .  S
Zn544       O549   1.966       .  S
Zn544       O553   1.979       .  S
Zn544       O560   1.963       .  S
Zn545       O548   1.972       .  S
Zn545       O550   2.006       .  S
Zn545       O552   1.996       .  S
Zn545       O556   1.992       .  S
Zn546       O548   1.958   1_556  S
Zn546       O551   2.183       .  S
Zn546       O554   2.197       .  S
Zn546       O557   2.152       .  S
Zn547       O548   1.998       .  S
Zn547       O555   2.053       .  S
Zn547       O558   2.040       .  S
Zn547       O559   2.009       .  S
O549        C561   1.265       .  A
O550        C562   1.269   1_554  A
O551        C563   1.298       .  A
O552        C561   1.269       .  A
O553        C563   1.265   1_554  A
O554        C562   1.300       .  A
O555        C564   1.279       .  A
O556        C565   1.269       .  A
O557        C564   1.296   1_556  A
O558        C565   1.274       .  A
O559        C566   1.271       .  A
O560        C566   1.264       .  A
C561        C578   1.464       .  S
C564        C714   1.511   1_554  S
C565        C591   1.480       .  S
C566        C598   1.472       .  S
C567        H568   1.072   1_565  S
C567        C573   1.521   1_565  S
C567        C803   1.541       .  S
C569        H570   1.110       .  S
C569        C806   1.548       .  S
C569        C576   1.566   1_565  S
C571        C799   1.539       .  S
C571        C574   1.362       .  D
C571        C631   1.475       .  S
C572        C575   1.419       .  D
C572        C611   1.547       .  S
C573        C576   1.378       .  D
C573        C618   1.500       .  S
C574        C801   1.549       .  S
C574        C601   1.521       .  S
C575        C588   1.529       .  S
C576        C581   1.515       .  S
C577        C578   1.405       .  A
C577        C582   1.403       .  A
C577       Br584   1.939       .  S
C578        C579   1.400       .  A
C579        C580   1.404       .  A
C580        C581   1.419       .  A
C581        C582   1.425       .  A
C582       Br583   1.921       .  S
C587        C588   1.401       .  A
C587        C592   1.416       .  A
C587       Br594   1.917       .  S
C588        C589   1.408       .  A
C589        C590   1.401       .  A
C589       Br596   1.898       .  S
C590        C591   1.405       .  A
C590       Br595   1.929       .  S
C591        C592   1.419       .  A
C592       Br593   1.927       .  S
C597        C598   1.397       .  A
C597        C602   1.400       .  A
C597       Br604   1.936       .  S
C598        C599   1.412       .  A
C599        C600   1.412       .  A
C599       Br606   1.944       .  S
C600        C601   1.428       .  A
C600       Br605   1.924       .  S
C601        C602   1.415       .  A
C607        C608   1.403       .  A
C607        C612   1.411       .  A
C607       Br614   1.921       .  S
C608        C609   1.394       .  A
C609        C610   1.411       .  A
C609       Br616   1.956       .  S
C610        C611   1.459       .  A
C610       Br615   1.940       .  S
C611        C612   1.418       .  A
C612       Br613   1.924       .  S
C617        C618   1.411       .  A
C617        C622   1.391       .  A
C617       Br624   1.908       .  S
C618        C619   1.409       .  A
C619        C620   1.416       .  A
C620        C621   1.422       .  A
C620       Br625   1.930       .  S
C621        C622   1.404       .  A
C622       Br623   1.940       .  S
C627        C628   1.420       .  A
C627        C632   1.398       .  A
C627       Br634   1.936       .  S
C628        C629   1.413       .  A
C629        C630   1.401       .  A
C630        C631   1.416       .  A
C631        C632   1.395       .  A
C632       Br865   1.929       .  S
Br633       C864   1.926       .  S
C637        C638   1.419       .  A
C637        C642   1.397       .  A
C638        C639   1.402       .  A
C639        C640   1.405       .  A
C639       Br646   1.928       .  S
C640        C641   1.411       .  A
C640       Br645   1.924       .  S
C641        C642   1.398       .  A
C642       Br643   1.938   1_655  S
C647        C648   1.415       .  A
C647        C652   1.413       .  A
C647       Br654   1.933       .  S
C648        C649   1.391       .  A
C649        C650   1.390       .  A
C649       Br656   1.935   1_545  S
C650        C651   1.432       .  A
C650       Br887   1.937       .  S
C651        C652   1.421       .  A
C652       Br653   1.930       .  S
Br655       C882   1.904       .  S
C657        C658   1.420       .  A
C657        C662   1.408       .  A
C658        C659   1.418       .  A
C659        C660   1.399       .  A
C659       Br666   1.897       .  S
C660        C661   1.392       .  A
C660       Br665   1.936       .  S
C661        C662   1.410       .  A
C667        C668   1.400       .  A
C667        C672   1.404       .  A
C667       Br674   1.934   1_545  S
C668        C669   1.411       .  A
C669        C670   1.409       .  A
C669       Br676   1.942       .  S
C670        C671   1.425       .  A
C670       Br675   1.922       .  S
C671        C672   1.416       .  A
C672       Br905   1.907   1_545  S
Br673       C904   1.899       .  S
C677        C678   1.403       .  A
C677        C682   1.396       .  A
C677       Br684   1.936       .  S
C678        C679   1.418       .  A
C679        C680   1.416       .  A
C679       Br686   1.932       .  S
C680        C681   1.418       .  A
C680       Br917   1.929       .  S
C681        C682   1.410       .  A
C682       Br683   1.907       .  S
Br685       C912   1.920       .  S
C687        C688   1.422       .  A
C687        C692   1.410       .  A
C687       Br694   1.926       .  S
C688        C689   1.416       .  A
C689        C690   1.394       .  A
C690        C691   1.394       .  A
C690       Br695   1.935   1_655  S
C691        C692   1.412       .  A
C692       Br693   1.929       .  S
Zn697       O701   1.978       .  S
Zn697       O702   2.025       .  S
Zn697       O706   1.994       .  S
Zn697       O713   1.998       .  S
Zn698       O701   1.956       .  S
Zn698       O703   2.167       .  S
Zn698       O705   2.169       .  S
Zn698       O709   2.195       .  S
Zn699       O701   1.975       .  S
Zn699       O704   1.967       .  S
Zn699       O707   1.986       .  S
Zn699       O710   1.973       .  S
Zn700       O701   1.974       .  S
Zn700       O708   1.989       .  S
Zn700       O711   2.007       .  S
Zn700       O712   1.963       .  S
O702        C714   1.274       .  A
O703        C715   1.298       .  A
O704        C716   1.264       .  A
O705        C714   1.295       .  A
O706        C716   1.269       .  A
O707        C715   1.267       .  A
O708        C717   1.267       .  A
O709        C718   1.301       .  A
O710        C717   1.267       .  A
O711        C718   1.270       .  A
O712        C719   1.266       .  A
O713        C719   1.269       .  A
C716        C900   1.469       .  S
C717        C923   1.466       .  S
C718        C794   1.513       .  S
C719        C910   1.465       .  S
Zn720       O724   1.942       .  S
Zn720       O725   2.062       .  S
Zn720       O729   2.102       .  S
Zn720       O736   2.101       .  S
Zn721       O724   1.896       .  S
Zn721       O726   1.948       .  S
Zn721       O728   1.949       .  S
Zn721       O732   1.932       .  S
Zn722       O724   1.944       .  S
Zn722       O727   2.075       .  S
Zn722       O730   2.053       .  S
Zn722       O733   2.104       .  S
Zn723       O724   1.937       .  S
Zn723       O731   2.045       .  S
Zn723       O734   2.004       .  S
Zn723       O735   2.072       .  S
O725        C737   1.278       .  A
O726        C738   1.262       .  A
O727        C739   1.284       .  A
O728        C737   1.261       .  A
O729        C739   1.288       .  A
O730        C738   1.276       .  A
O731        C740   1.279       .  A
O732        C741   1.260       .  A
O733        C740   1.288       .  A
O734        C741   1.272       .  A
O735        C742   1.282       .  A
O736        C742   1.288       .  A
C737        C893   1.476       .  S
C738        C880   1.490       .  S
C739        C775   1.495       .  S
C741        C873   1.470       .  S
C743        H744   1.111       .  S
C743        C748   1.555       .  S
C745        C751   1.559       .  S
C747        C750   1.379       .  D
C747        C903   1.515       .  S
C748        C751   1.384       .  D
C748        C913   1.519       .  S
C749        C752   1.383       .  D
C749        C920   1.524       .  S
C750        C870   1.509       .  S
C751        C883   1.510       .  S
C752        C890   1.500       .  S
Zn753       O757   1.929       .  S
Zn753       O758   1.977       .  S
Zn753       O762   1.956       .  S
Zn753       O769   2.013       .  S
Zn754       O757   1.969       .  S
Zn754       O759   1.965       .  S
Zn754       O761   2.056       .  S
Zn754       O765   1.981       .  S
Zn755       O757   1.963       .  S
Zn755       O760   2.004       .  S
Zn755       O763   1.947       .  S
Zn755       O766   1.998       .  S
Zn756       O757   1.960       .  S
Zn756       O764   2.147       .  S
Zn756       O767   2.127       .  S
Zn756       O768   2.153       .  S
O758        C770   1.267       .  A
O759        C771   1.263       .  A
O760        C772   1.267       .  A
O761        C770   1.273       .  A
O762        C772   1.266       .  A
O763        C771   1.263       .  A
O764        C773   1.291       .  A
O765        C774   1.268       .  A
O766        C773   1.270       .  A
O767        C774   1.289       .  A
O768        C775   1.294       .  A
O769        C775   1.273       .  A
C770        C840   1.488       .  S
C771        C860   1.464       .  S
C772        C853   1.474       .  S
Zn776       O780   1.971       .  S
Zn776       O781   1.976       .  S
Zn776       O785   1.973       .  S
Zn776       O792   1.971       .  S
Zn777       O780   1.968       .  S
Zn777       O782   2.012       .  S
Zn777       O784   1.996       .  S
Zn777       O788   1.983       .  S
Zn778       O780   1.955   1_556  S
Zn778       O783   2.176       .  S
Zn778       O786   2.190       .  S
Zn778       O789   2.148       .  S
Zn779       O780   1.995       .  S
Zn779       O787   2.042       .  S
Zn779       O790   2.030       .  S
Zn779       O791   2.003       .  S
O781        C793   1.266       .  A
O782        C794   1.269   1_554  A
O783        C795   1.297       .  A
O784        C793   1.270       .  A
O785        C795   1.264   1_554  A
O786        C794   1.299       .  A
O787        C796   1.277   1_554  A
O788        C797   1.269       .  A
O789        C796   1.295       .  A
O790        C797   1.272       .  A
O791        C798   1.269       .  A
O792        C798   1.265       .  A
C793        C810   1.464       .  S
C797        C823   1.476       .  S
C798        C830   1.472       .  S
C799        H800   1.063       .  S
C799        C805   1.519       .  S
C801        H802   1.109       .  S
C801        C808   1.567       .  S
C803        C806   1.359       .  D
C803        C863   1.469       .  S
C804        C807   1.418       .  D
C804        C843   1.547       .  S
C805        C808   1.376       .  D
C805        C850   1.502       .  S
C806        C833   1.520       .  S
C807        C820   1.528       .  S
C808        C813   1.514       .  S
C809        C810   1.404       .  A
C809        C814   1.403       .  A
C809       Br816   1.935       .  S
C810        C811   1.398       .  A
C811        C812   1.404       .  A
C812        C813   1.420       .  A
C813        C814   1.427       .  A
C814       Br815   1.924       .  S
C819        C820   1.402       .  A
C819        C824   1.415       .  A
C819       Br826   1.918       .  S
C820        C821   1.410       .  A
C821        C822   1.401       .  A
C821       Br828   1.897       .  S
C822        C823   1.403       .  A
C822       Br827   1.933       .  S
C823        C824   1.418       .  A
C824       Br825   1.928       .  S
C829        C830   1.400       .  A
C829        C834   1.402       .  A
C829       Br836   1.934   1_565  S
C830        C831   1.412       .  A
C831        C832   1.409       .  A
C831       Br838   1.944       .  S
C832        C833   1.426       .  A
C832       Br837   1.925       .  S
C833        C834   1.413       .  A
C839        C840   1.405       .  A
C839        C844   1.414       .  A
C839       Br846   1.915       .  S
C840        C841   1.399       .  A
C841        C842   1.411       .  A
C841       Br848   1.954       .  S
C842        C843   1.453       .  A
C842       Br847   1.935       .  S
C843        C844   1.418       .  A
C844       Br845   1.923   1_565  S
C849        C850   1.414       .  A
C849        C854   1.390       .  A
C849       Br856   1.909       .  S
C850        C851   1.411       .  A
C851        C852   1.415       .  A
C852        C853   1.419       .  A
C852       Br857   1.926       .  S
C853        C854   1.400       .  A
C854       Br855   1.940       .  S
C859        C860   1.417       .  A
C859        C864   1.393       .  A
C859       Br866   1.936   1_565  S
C860        C861   1.415       .  A
C861        C862   1.400       .  A
C862        C863   1.414       .  A
C863        C864   1.392       .  A
C869        C870   1.412       .  A
C869        C874   1.393       .  A
C870        C871   1.422       .  A
C871        C872   1.413       .  A
C871       Br878   1.928       .  S
C872        C873   1.415       .  A
C872       Br877   1.940       .  S
C873        C874   1.406       .  A
C874       Br875   1.949       .  S
C879        C880   1.422       .  A
C879        C884   1.415       .  A
C879       Br886   1.933       .  S
C880        C881   1.410       .  A
C881        C882   1.400       .  A
C881       Br888   1.942       .  S
C882        C883   1.410       .  A
C883        C884   1.413       .  A
C884       Br885   1.931       .  S
C889        C890   1.411       .  A
C889        C894   1.413       .  A
C890        C891   1.416       .  A
C891        C892   1.400       .  A
C891       Br898   1.912       .  S
C892        C893   1.404       .  A
C892       Br897   1.939       .  S
C893        C894   1.414       .  A
C899        C900   1.396       .  A
C899        C904   1.397       .  A
C899       Br906   1.939       .  S
C900        C901   1.413       .  A
C901        C902   1.412       .  A
C901       Br908   1.937       .  S
C902        C903   1.423       .  A
C902       Br907   1.925       .  S
C903        C904   1.418       .  A
C909        C910   1.395       .  A
C909        C914   1.395       .  A
C909       Br916   1.936       .  S
C910        C911   1.411       .  A
C911        C912   1.414       .  A
C911       Br918   1.937       .  S
C912        C913   1.425       .  A
C913        C914   1.415       .  A
C914       Br915   1.901       .  S
C919        C920   1.425       .  A
C919        C924   1.415       .  A
C919       Br926   1.917       .  S
C920        C921   1.416       .  A
C921        C922   1.395       .  A
C922        C923   1.392       .  A
C922       Br927   1.937   1_655  S
C923        C924   1.411       .  A
C924       Br925   1.936       .  S
