geometry optimzed in LAMMPS
_audit_creation_date              2020-12-01 
_audit_creation_method            'lammps2cif' 
_symmetry_space_group_name_H-M    'P1' 
_symmetry_Int_Tables_number       1 
_symmetry_cell_setting            triclinic 
loop_ 
_symmetry_equiv_pos_as_xyz 
  x,y,z 
_cell_length_a                    46.59809249 
_cell_length_b                    46.17839634144003 
_cell_length_c                    43.54866103536807 
_cell_angle_alpha                 90.72454499068549 
_cell_angle_beta                  89.72663563059841 
_cell_angle_gamma                 119.44461916803493 
loop_ 
_atom_site_label 
_atom_site_type_symbol 
_atom_site_fract_x 
_atom_site_fract_y 
_atom_site_fract_z 
_atom_site_charge 
C1          C  0.49639223  0.01177978  0.98953511     0.04500
S2          S  0.47341843  0.02961087  0.97284911    -0.09500
C3          C  0.50507001  0.05331895  0.94551751    -0.00600
C4          C  0.53311205  0.05148045  0.94694828    -0.00600
S5          S  0.53740949  0.02640512  0.97572388    -0.09500
C6          C  0.47121650  0.94147544  0.05165650    -0.00600
C7          C  0.44223308  0.93959717  0.04437537    -0.00600
S8          S  0.44072747  0.97058282  0.02144943    -0.09500
C9          C  0.48311675  0.98816182  0.01124910     0.04500
S10         S  0.50654092  0.97250593  0.03090509    -0.09500
O11         O  0.48159034  0.77260552  0.28018088    -0.71900
O12         O  0.48302537  0.71071176  0.21513037    -0.72900
O13         O  0.48580640  0.71351190  0.27985523    -0.61500
O14         O  0.47759802  0.76924044  0.21439678    -0.69900
O15         O  0.53200436  0.80073320  0.21327917    -0.69500
O16         O  0.54018511  0.74260356  0.27759728    -0.60700
O17         O  0.53735485  0.74188756  0.21256200    -0.73200
O18         O  0.53590523  0.80171680  0.27885405    -0.72000
Cu19       Cu  0.48013041  0.74054777  0.24746167     1.04600
Cu20       Cu  0.53825895  0.77285139  0.24544640     1.04300
C21         C  0.50860975  0.79650307  0.29054172     0.94300
C22         C  0.51063497  0.71649579  0.20378182     0.93400
C23         C  0.51399365  0.71867719  0.28889094     0.85600
C24         C  0.50344650  0.79369570  0.20334662     0.91800
O25         O  0.52638472  0.23701306  0.78264334    -0.71900
O26         O  0.52639018  0.29879472  0.71827514    -0.72900
O27         O  0.52205559  0.29635192  0.78314348    -0.61500
O28         O  0.53013306  0.23958395  0.71758963    -0.69900
O29         O  0.47593963  0.20977743  0.71480003    -0.69500
O30         O  0.46772480  0.26668800  0.77953919    -0.60700
O31         O  0.47216013  0.26931894  0.71434814    -0.73200
O32         O  0.47182307  0.20763023  0.77991833    -0.72000
Cu33       Cu  0.52811237  0.26894012  0.75057557     1.04600
Cu34       Cu  0.47001415  0.23729708  0.74707737     1.04300
C35         C  0.49908293  0.21270267  0.79154833     0.94300
C36         C  0.49961992  0.29380251  0.70570427     0.93400
C37         C  0.49344980  0.29086323  0.79130399     0.85600
C38         C  0.50434319  0.21560775  0.70563811     0.91800
O39         O  0.72601213  0.20780857  0.79027832    -0.71900
O40         O  0.78614897  0.27617475  0.73047982    -0.72900
O41         O  0.78415970  0.27107589  0.79511082    -0.61500
O42         O  0.72961795  0.21291827  0.72490590    -0.69900
O43         O  0.69900443  0.23747900  0.72568451    -0.69500
O44         O  0.75376065  0.29583599  0.79727885    -0.60700
O45         O  0.75615836  0.30129338  0.73217958    -0.73200
O46         O  0.69609498  0.23278548  0.79062836    -0.72000
Cu47       Cu  0.75750933  0.24112647  0.76013021     1.04600
Cu48       Cu  0.72510145  0.26761598  0.76151484     1.04300
C49         C  0.70111238  0.20974845  0.80019065     0.94300
C50         C  0.78098012  0.29966725  0.72202497     0.93400
C51         C  0.77811613  0.29290793  0.80701157     0.85600
C52         C  0.70605446  0.21617732  0.71389169     0.91800
O53         O  0.20175001  0.71605317  0.22947427    -0.71900
O54         O  0.26163953  0.78547929  0.29196838    -0.72900
O55         O  0.26002606  0.77977678  0.22729704    -0.61500
O56         O  0.20325392  0.72267889  0.29461602    -0.69900
O57         O  0.23243847  0.69650850  0.29608891    -0.69500
O58         O  0.29161525  0.75629259  0.23055038    -0.60700
O59         O  0.29082940  0.75978015  0.29503424    -0.73200
O60         O  0.23337347  0.69267239  0.23081389    -0.72000
Cu61       Cu  0.23054692  0.75178176  0.26074382     1.04600
Cu62       Cu  0.26306579  0.72538398  0.26323234     1.04300
C63         C  0.20837082  0.69358656  0.22002235     0.94300
C64         C  0.28613505  0.78386921  0.30314179     0.93400
C65         C  0.28535377  0.77788284  0.21909484     0.85600
C66         C  0.20871736  0.70052197  0.30586175     0.91800
C67         C  0.96364011  0.48963152  0.01738791     0.04500
S68         S  0.93470871  0.44763529  0.00551650    -0.09500
C69         C  0.92284585  0.46023664  0.97091488    -0.00600
C70         C  0.93680118  0.49354663  0.96706325    -0.00600
S71         S  0.96377412  0.52222601  0.99559956    -0.09500
C72         C  0.03611502  0.52393024  0.07784183    -0.00600
C73         C  0.02223184  0.49158382  0.08055450    -0.00600
S74         S  0.98520851  0.46287076  0.06138538    -0.09500
C75         C  0.98473282  0.49617495  0.04109426     0.04500
S76         S  0.01473560  0.53819279  0.05296035    -0.09500
C77         C  0.97446711  0.46784662  0.49838032     0.04500
S78         S  0.95550495  0.42371976  0.50356278    -0.09500
C79         C  0.93344205  0.42656025  0.53585866    -0.00600
C80         C  0.93450859  0.45434536  0.54464275    -0.00600
S81         S  0.95790431  0.48973577  0.52051320    -0.09500
C82         C  0.04740211  0.52768060  0.44576528    -0.00600
C83         C  0.04867077  0.49936398  0.44085923    -0.00600
S84         S  0.01942266  0.46259307  0.46041500    -0.09500
C85         C  0.00054571  0.48386264  0.47948788     0.04500
S86         S  0.01880439  0.52767784  0.47345005    -0.09500
O87         O  0.25096548  0.55070165  0.22160755    -0.71900
O88         O  0.31228564  0.54522728  0.28166117    -0.72900
O89         O  0.31224763  0.54968752  0.21642197    -0.61500
O90         O  0.25116687  0.54497871  0.28596621    -0.69900
O91         O  0.22450040  0.49026872  0.28207614    -0.69500
O92         O  0.28491335  0.49498056  0.21323751    -0.60700
O93         O  0.28526894  0.49013533  0.27845081    -0.73200
O94         O  0.22399919  0.49561478  0.21770568    -0.72000
Cu95       Cu  0.28271664  0.54956614  0.25149855     1.04600
Cu96       Cu  0.25383435  0.49088203  0.24763365     1.04300
C97         C  0.22708851  0.52386434  0.21098203     0.94300
C98         C  0.30838346  0.51713070  0.28985964     0.93400
C99         C  0.30841925  0.52268066  0.20392915     0.85600
C100        C  0.22772911  0.51686073  0.29472972     0.91800
O101        O  0.69585912  0.45173323  0.76992185    -0.71900
O102        O  0.75934527  0.44627690  0.70961927    -0.72900
O103        O  0.75695105  0.45318201  0.77443873    -0.61500
O104        O  0.69781889  0.44515620  0.70451666    -0.69900
O105        O  0.72508127  0.50004168  0.69974554    -0.69500
O106        O  0.78299402  0.50800220  0.77029042    -0.60700
O107        O  0.78627087  0.50125895  0.70550901    -0.73200
O108        O  0.72198602  0.50628880  0.76501415    -0.72000
Cu109      Cu  0.72654599  0.44716026  0.73965287     1.04600
Cu110      Cu  0.75493018  0.50578065  0.73490189     1.04300
C111        C  0.69936236  0.48004827  0.77774797     0.94300
C112        C  0.78300009  0.47282295  0.69848482     0.93400
C113        C  0.77880294  0.48189100  0.78391233     0.85600
C114        C  0.70222779  0.47145047  0.69107789     0.91800
C115        C  0.50595794  0.51915051  0.96031316     0.04500
S116        S  0.47894145  0.47888072  0.94410915    -0.09500
C117        C  0.51212862  0.47689036  0.92480811    -0.00600
C118        C  0.54216028  0.50439816  0.92412603    -0.00600
S119        S  0.54739141  0.54057280  0.94510017    -0.09500
C120        C  0.49245619  0.56860086  0.02775551    -0.00600
C121        C  0.46233071  0.54109396  0.02781018    -0.00600
S122        S  0.45455616  0.50979422  0.99890537    -0.09500
C123        C  0.49558264  0.53223934  0.98300966     0.04500
S124        S  0.52243085  0.57235311  0.99960421    -0.09500
C125        C  0.51135460  0.50003605  0.50874748     0.04500
S126        S  0.55464449  0.51705166  0.51601235    -0.09500
C127        C  0.54785901  0.48463951  0.54230220    -0.00600
C128        C  0.51671736  0.45999814  0.54710653    -0.00600
S129        S  0.48379260  0.46184228  0.52771296    -0.09500
C130        C  0.46372656  0.52752062  0.45298066    -0.00600
C131        C  0.49446743  0.55342499  0.44917056    -0.00600
S132        S  0.52713665  0.55370544  0.47124466    -0.09500
C133        C  0.49998753  0.51496952  0.48958263     0.04500
S134        S  0.45692007  0.49655535  0.48083082    -0.09500
C135        C  0.51363654  0.02036001  0.50762862     0.04500
S136        S  0.55548603  0.03732897  0.52111749    -0.09500
C137        C  0.55040309  0.06146140  0.55121294    -0.00600
C138        C  0.52078017  0.06003946  0.55317959    -0.00600
S139        S  0.48797556  0.03285631  0.52797183    -0.09500
C140        C  0.46416860  0.95296008  0.44412204    -0.00600
C141        C  0.49442247  0.95616159  0.44060317    -0.00600
S142        S  0.52824967  0.98847879  0.46167107    -0.09500
C143        C  0.50196304  0.99914444  0.48332569     0.04500
S144        S  0.45969563  0.98057956  0.47077269    -0.09500
C145        C  0.62959190  0.46379578  0.83511271    -0.10800
C146        C  0.64023291  0.49604988  0.84656072     0.11700
C147        C  0.67143259  0.52212773  0.83728269    -0.02700
C148        C  0.68941036  0.51535698  0.81506927    -0.05400
C149        C  0.67820296  0.48341698  0.80221522    -0.16200
C150        C  0.64808331  0.45667957  0.81348185     0.02800
C151        C  0.61715757  0.50115168  0.86704307     0.12700
C152        C  0.68738526  0.55753079  0.84976914     0.63300
H153        H  0.71291712  0.53571431  0.80781270     0.12700
C154        C  0.63488377  0.42081935  0.80295466     0.55500
H155        H  0.60601702  0.44417469  0.84291069     0.08500
C156        C  0.59695833  0.51362338  0.85571015    -0.05300
C157        C  0.57510250  0.51715206  0.87601314    -0.06000
C158        C  0.57048423  0.50566209  0.90638389    -0.15600
C159        C  0.59025349  0.49243235  0.91750449    -0.01200
C160        C  0.61352361  0.49083312  0.89768503    -0.08700
C161        C  0.59695623  0.52091936  0.82179070     0.65500
H162        H  0.55969591  0.52688798  0.86769397     0.11000
C163        C  0.58762769  0.47904491  0.94963833     0.63900
H164        H  0.62851792  0.48058424  0.90602357     0.08300
F165        F  0.60497731  0.39948836  0.81652552    -0.19100
F166        F  0.65689735  0.41017392  0.81077545    -0.15300
F167        F  0.63010045  0.41825792  0.77154777    -0.18800
F168        F  0.71719512  0.56538020  0.86327225    -0.22200
F169        F  0.66840337  0.56245374  0.87141122    -0.23700
F170        F  0.69337328  0.57916265  0.82579246    -0.17700
F171        F  0.57775798  0.44552182  0.94764515    -0.20200
F172        F  0.56563778  0.48300392  0.96813535    -0.21300
F173        F  0.61817223  0.49544840  0.96371453    -0.18500
F174        F  0.62757391  0.54599510  0.81304359    -0.18600
F175        F  0.57405894  0.53073886  0.81498197    -0.22400
F176        F  0.58931416  0.49260308  0.80464375    -0.24000
C177        C  0.62786414  0.45650829  0.64402181    -0.10800
C178        C  0.64313901  0.47313589  0.61695906     0.11700
C179        C  0.67760798  0.48721156  0.61336391    -0.02700
C180        C  0.69600031  0.48501338  0.63782743    -0.05400
C181        C  0.68084060  0.46925503  0.66531753    -0.16200
C182        C  0.64622629  0.45443976  0.66851329     0.02800
C183        C  0.62234954  0.47784174  0.59428768     0.12700
C184        C  0.69479553  0.50500966  0.58416215     0.63300
H185        H  0.72253380  0.49623478  0.63597793     0.12700
C186        C  0.62904690  0.43819930  0.69821629     0.55500
H187        H  0.60141704  0.44599465  0.64607436     0.08500
C188        C  0.60572901  0.45506291  0.56999099    -0.05300
C189        C  0.58366682  0.45997420  0.55194280    -0.06000
C190        C  0.57646149  0.48559402  0.55832041    -0.15600
C191        C  0.59360853  0.50878013  0.58221585    -0.01200
C192        C  0.61649430  0.50449978  0.59970777    -0.08700
C193        C  0.60919229  0.42469521  0.56253630     0.65500
H194        H  0.57075405  0.44260403  0.53344052     0.11000
C195        C  0.58782347  0.53777337  0.58954716     0.63900
H196        H  0.62957226  0.52158098  0.61842701     0.08300
F197        F  0.59578625  0.42833916  0.69746680    -0.19100
F198        F  0.64313411  0.46050854  0.72237976    -0.15300
F199        F  0.63211120  0.41035536  0.70330061    -0.18800
F200        F  0.69083548  0.53250503  0.58028517    -0.22200
F201        F  0.68145391  0.48385890  0.55914813    -0.23700
F202        F  0.72822841  0.51561375  0.58495065    -0.17700
F203        F  0.60224463  0.55308790  0.61716722    -0.20200
F204        F  0.55452163  0.52721438  0.59167916    -0.21300
F205        F  0.60141299  0.56111909  0.56663401    -0.18500
F206        F  0.62046217  0.42695289  0.53273549    -0.18600
F207        F  0.57865013  0.39643693  0.56478873    -0.22400
F208        F  0.63068906  0.42108380  0.58176806    -0.24000
C209        C  0.38688137  0.53034154  0.07375475    -0.10800
C210        C  0.39746413  0.53096906  0.10403561     0.11700
C211        C  0.42769969  0.53135876  0.10894826    -0.02700
C212        C  0.44721896  0.53325812  0.08338730    -0.05400
C213        C  0.43767906  0.53463560  0.05308129    -0.16200
C214        C  0.40611175  0.53144950  0.04805103     0.02800
C215        C  0.37555282  0.52961211  0.13002705     0.12700
C216        C  0.43914239  0.52925642  0.14100989     0.63300
H217        H  0.47036928  0.53362766  0.08685936     0.12700
C218        C  0.39212986  0.52826912  0.01596199     0.55500
H219        H  0.36303034  0.52852666  0.07046761     0.08500
C220        C  0.37546019  0.55828893  0.14180449    -0.05300
C221        C  0.35362898  0.55488744  0.16597423    -0.06000
C222        C  0.33135664  0.52372041  0.17859752    -0.15600
C223        C  0.33195390  0.49494279  0.16671016    -0.01200
C224        C  0.35393614  0.49863894  0.14260989    -0.08700
C225        C  0.39775485  0.59227579  0.12823706     0.65500
H226        H  0.35340484  0.57680983  0.17472416     0.11000
C227        C  0.30987963  0.46020894  0.17904224     0.63900
H228        H  0.35434120  0.47709854  0.13301061     0.08300
F229        F  0.36253291  0.52850868  0.01641808    -0.19100
F230        F  0.38640444  0.49856275  0.00270162    -0.15300
F231        F  0.41379805  0.55417611  0.99783739    -0.18800
F232        F  0.41774657  0.49869027  0.15340948    -0.22200
F233        F  0.43980328  0.55394865  0.15967654    -0.23700
F234        F  0.47045555  0.53284205  0.14082970    -0.17700
F235        F  0.27724636  0.45045354  0.17293253    -0.20200
F236        F  0.31461291  0.45988636  0.21034868    -0.21300
F237        F  0.31661428  0.43684941  0.16564012    -0.18500
F238        F  0.39681198  0.61744957  0.14503275    -0.18600
F239        F  0.38790341  0.59306455  0.09852561    -0.22400
F240        F  0.42996549  0.59869462  0.12773249    -0.24000
C241        C  0.39548546  0.53583423  0.41362577    -0.10800
C242        C  0.38982061  0.51520919  0.38785869     0.11700
C243        C  0.40652320  0.49671389  0.38486600    -0.02700
C244        C  0.42880230  0.49981426  0.40798562    -0.05400
C245        C  0.43561143  0.52161639  0.43305790    -0.16200
C246        C  0.41753553  0.53867640  0.43687217     0.02800
C247        C  0.36805451  0.51518491  0.36324027     0.12700
C248        C  0.40163795  0.47471504  0.35688668     0.63300
H249        H  0.44262643  0.48668385  0.40579500     0.12700
C250        C  0.42045367  0.55994971  0.46474299     0.55500
H251        H  0.38260664  0.54996555  0.41552430     0.08500
C252        C  0.33332347  0.49563850  0.36459919    -0.05300
C253        C  0.31471915  0.49603733  0.33946852    -0.06000
C254        C  0.32984285  0.51596795  0.31385686    -0.15600
C255        C  0.36458581  0.53550940  0.31254397    -0.01200
C256        C  0.38308652  0.53502192  0.33763174    -0.08700
C257        C  0.31604616  0.47519474  0.39266350     0.65500
H258        H  0.28806380  0.48162259  0.34003883     0.11000
C259        C  0.38209671  0.55583028  0.28444067     0.63900
H260        H  0.40963187  0.54993477  0.33742850     0.08300
F261        F  0.38927651  0.55128783  0.47547730    -0.19100
F262        F  0.43619072  0.59302218  0.45645469    -0.15300
F263        F  0.43755408  0.55594682  0.48862433    -0.18800
F264        F  0.41234016  0.49385201  0.33077308    -0.22200
F265        F  0.36865414  0.45153518  0.35352576    -0.23700
F266        F  0.41910647  0.45776858  0.35932234    -0.17700
F267        F  0.37630585  0.58231471  0.28185200    -0.20200
F268        F  0.37080811  0.53602133  0.25830656    -0.21300
F269        F  0.41583083  0.56849393  0.28609815    -0.18500
F270        F  0.28224496  0.45685297  0.38850752    -0.18600
F271        F  0.32214180  0.49608996  0.41773136    -0.22400
F272        F  0.32743864  0.45332650  0.39886334    -0.24000
C273        C  0.09478008  0.49633271  0.36899531    -0.10800
C274        C  0.12498046  0.50233363  0.38149600     0.11700
C275        C  0.12936625  0.50578294  0.41381025    -0.02700
C276        C  0.10311393  0.50275566  0.43240781    -0.05400
C277        C  0.07317556  0.49745121  0.41975739    -0.16200
C278        C  0.06851733  0.49307243  0.38753241     0.02800
C279        C  0.15161489  0.50540108  0.36005823     0.12700
C280        C  0.16169753  0.51286805  0.42856746     0.63300
H281        H  0.10618345  0.50579598  0.45708317     0.12700
C282        C  0.03654885  0.48478439  0.37141872     0.55500
H283        H  0.09168152  0.49420445  0.34425691     0.08500
C284        C  0.15045040  0.47752037  0.34495761    -0.05300
C285        C  0.17587387  0.48256303  0.32427407    -0.06000
C286        C  0.20302572  0.51435850  0.31860315    -0.15600
C287        C  0.20478673  0.54210721  0.33507234    -0.01200
C288        C  0.17840392  0.53707403  0.35451456    -0.08700
C289        C  0.12279164  0.44243406  0.35111813     0.65500
H290        H  0.17449944  0.46127638  0.31225498     0.11000
C291        C  0.23439623  0.57685800  0.33315041     0.63900
H292        H  0.17856828  0.55806394  0.36588410     0.08300
F293        F  0.02752252  0.45766143  0.35207743    -0.19100
F294        F  0.04122326  0.51164448  0.35410212    -0.15300
F295        F  0.01070392  0.47677626  0.39141258    -0.18800
F296        F  0.18676852  0.54349269  0.41942136    -0.22200
F297        F  0.16938079  0.48857093  0.41994990    -0.23700
F298        F  0.16014029  0.51341337  0.46029937    -0.17700
F299        F  0.23660607  0.58941621  0.30404944    -0.20200
F300        F  0.26285018  0.57579157  0.33993044    -0.21300
F301        F  0.23226338  0.59871207  0.35388018    -0.18500
F302        F  0.12673723  0.41878979  0.33465636    -0.18600
F303        F  0.09277418  0.43923686  0.34288096    -0.22400
F304        F  0.12222754  0.43560047  0.38200284    -0.24000
C305        C  0.87031844  0.43112117  0.60683988    -0.10800
C306        C  0.87632890  0.46277782  0.61638729     0.11700
C307        C  0.90546565  0.49080628  0.60758013    -0.02700
C308        C  0.92422282  0.48636761  0.58506613    -0.05400
C309        C  0.91691408  0.45455025  0.57429013    -0.16200
C310        C  0.89408699  0.42291891  0.59169148     0.02800
C311        C  0.85183311  0.46539784  0.63686632     0.12700
C312        C  0.91513914  0.52540396  0.61978847     0.63300
H313        H  0.94441512  0.50817274  0.57499997     0.12700
C314        C  0.89618088  0.35938411  0.59326104     0.55500
H315        H  0.84619758  0.41254330  0.61308091     0.08500
C316        C  0.82435217  0.46705531  0.62513907    -0.05300
C317        C  0.80267613  0.47020577  0.64593762    -0.06000
C318        C  0.80715859  0.47056266  0.67780036    -0.15600
C319        C  0.83408121  0.46800188  0.68951905    -0.01200
C320        C  0.85602859  0.46539048  0.66877551    -0.08700
C321        C  0.81733615  0.46419898  0.59090010     0.65500
H322        H  0.78158808  0.47165746  0.63751935     0.11000
C323        C  0.83942394  0.46813391  0.72387350     0.63900
H324        H  0.87674592  0.46332078  0.67727917     0.08300
F325        F  0.87122486  0.33122653  0.60849953    -0.19100
F326        F  0.92376668  0.35881644  0.60602738    -0.15300
F327        F  0.89514437  0.34266065  0.56535010    -0.18800
F328        F  0.91628645  0.52582358  0.65151080    -0.22200
F329        F  0.89239942  0.53450879  0.61050977    -0.23700
F330        F  0.94588638  0.54895616  0.60933885    -0.17700
F331        F  0.86786221  0.46704630  0.73067489    -0.20200
F332        F  0.81302419  0.44075813  0.73683819    -0.21300
F333        F  0.84206133  0.49678082  0.73697559    -0.18500
F334        F  0.79037466  0.46800851  0.58420574    -0.18600
F335        F  0.81082456  0.43319133  0.58035882    -0.22400
F336        F  0.84418196  0.48828782  0.57525984    -0.24000
C337        C  0.11914016  0.51224733  0.09411980    -0.10800
C338        C  0.11968148  0.51128966  0.13441461     0.11700
C339        C  0.08119872  0.49689033  0.15523815    -0.02700
C340        C  0.04402803  0.48352319  0.13487290    -0.05400
C341        C  0.04404115  0.48280764  0.09401709    -0.16200
C342        C  0.08204474  0.49795736  0.07361880     0.02800
C343        C  0.15107379  0.51814709  0.15110318     0.12700
C344        C  0.07865196  0.49229634  0.18954576     0.63300
H345        H  0.02150475  0.47736010  0.14708437     0.12700
C346        C  0.08431701  0.50261175  0.03946757     0.55500
H347        H  0.14165532  0.52338351  0.08124699     0.08500
C348        C  0.17255086  0.50533335  0.14187533    -0.05300
C349        C  0.19710969  0.50840177  0.16243996    -0.06000
C350        C  0.20270807  0.52498091  0.19047096    -0.15600
C351        C  0.18382526  0.54001692  0.19887431    -0.01200
C352        C  0.15837448  0.53609350  0.17916307    -0.08700
C353        C  0.17192881  0.48918298  0.11094331     0.65500
H354        H  0.21300818  0.49817680  0.15671645     0.11000
C355        C  0.18971726  0.55920514  0.22899130     0.63900
H356        H  0.14408131  0.54716343  0.18645714     0.08300
F357        F  0.10333039  0.48997661  0.02714640    -0.19100
F358        F  0.09907846  0.53617374  0.03318502    -0.15300
F359        F  0.05353536  0.48641005  0.02593670    -0.18800
F360        F  0.08977674  0.52238711  0.20462065    -0.22200
F361        F  0.09666424  0.47753256  0.19888384    -0.23700
F362        F  0.04612852  0.47192001  0.19777579    -0.17700
F363        F  0.22045543  0.58734549  0.22850020    -0.20200
F364        F  0.18812422  0.53946542  0.25326017    -0.21300
F365        F  0.16654243  0.56925238  0.23411036    -0.18500
F366        F  0.19215547  0.47503250  0.11045123    -0.18600
F367        F  0.18330855  0.51284892  0.08830381    -0.22400
F368        F  0.14098430  0.46394138  0.10404574    -0.24000
C369        C  0.81063906  0.46905339  0.86011533    -0.10800
C370        C  0.84342436  0.49472207  0.85908545     0.11700
C371        C  0.85447439  0.51697162  0.83428779    -0.02700
C372        C  0.83243051  0.51190125  0.81033371    -0.05400
C373        C  0.79990304  0.48536748  0.81052742    -0.16200
C374        C  0.78834746  0.46403719  0.83628497     0.02800
C375        C  0.86624314  0.49716288  0.88344956     0.12700
C376        C  0.88945765  0.54592519  0.83316208     0.63300
H377        H  0.84074657  0.52838189  0.79085250     0.12700
C378        C  0.75257901  0.43689424  0.83932429     0.55500
H379        H  0.80255151  0.45258388  0.87952267     0.08500
C380        C  0.86804458  0.51759923  0.92075041    -0.05300
C381        C  0.89976619  0.52373199  0.94936436    -0.06000
C382        C  0.92783023  0.50680497  0.94107928    -0.15600
C383        C  0.92656011  0.48749804  0.90335507    -0.01200
C384        C  0.89467662  0.48144135  0.87557015    -0.08700
C385        C  0.84387694  0.52924714  0.92738245     0.65500
H386        H  0.89931275  0.53334195  0.97201296     0.11000
C387        C  0.95167998  0.47755524  0.89450688     0.63900
H388        H  0.89380351  0.46998672  0.85350517     0.08300
F389        F  0.74594306  0.42267836  0.86812328    -0.19100
F390        F  0.74542880  0.41187800  0.81792379    -0.15300
F391        F  0.73199503  0.45016020  0.83485547    -0.18800
F392        F  0.91140053  0.53407529  0.83015456    -0.22200
F393        F  0.89643431  0.56471154  0.85987417    -0.23700
F394        F  0.89407752  0.56661596  0.80868601    -0.17700
F395        F  0.93620873  0.44430029  0.88623765    -0.20200
F396        F  0.97314732  0.48313830  0.91850624    -0.21300
F397        F  0.96948580  0.49626356  0.86974703    -0.18500
F398        F  0.85081729  0.54570492  0.95538994    -0.18600
F399        F  0.81243361  0.50219641  0.92812295    -0.22400
F400        F  0.84553659  0.55060379  0.90463814    -0.24000
C401        C  0.38769210  0.87437083  0.41512117    -0.10800
C402        C  0.38497810  0.88382556  0.38527910     0.11700
C403        C  0.40669124  0.91676463  0.37577771    -0.02700
C404        C  0.43106234  0.93886609  0.39642165    -0.05400
C405        C  0.43498824  0.92887462  0.42569958    -0.16200
C406        C  0.41209143  0.89639074  0.43573867     0.02800
C407        C  0.35978840  0.85829808  0.36425806     0.12700
C408        C  0.40457454  0.92830152  0.34378288     0.63300
H409        H  0.44798669  0.96410251  0.38954710     0.12700
C410        C  0.41209043  0.88328317  0.46749362     0.55500
H411        H  0.37059976  0.84926161  0.42233382     0.08500
C412        C  0.36535290  0.83445060  0.34877112    -0.05300
C413        C  0.34069280  0.81101612  0.32924639    -0.06000
C414        C  0.31038048  0.81025813  0.32465465    -0.15600
C415        C  0.30498958  0.83458735  0.34022493    -0.01200
C416        C  0.32983616  0.85793245  0.35996294    -0.08700
C417        C  0.39720451  0.83357641  0.35310273     0.65500
H418        H  0.34514540  0.79287595  0.31738334     0.11000
C419        C  0.27340267  0.83621608  0.33662133     0.63900
H420        H  0.32621065  0.87639010  0.37228909     0.08300
F421        F  0.42044843  0.85845323  0.46508421    -0.19100
F422        F  0.38083158  0.86997199  0.47997154    -0.15300
F423        F  0.43361630  0.90747439  0.48759961    -0.18800
F424        F  0.40719333  0.90778417  0.32188976    -0.22200
F425        F  0.42949682  0.96047223  0.33855314    -0.23700
F426        F  0.37473571  0.92747583  0.34017352    -0.17700
F427        F  0.24671065  0.80627066  0.34497805    -0.20200
F428        F  0.26992022  0.84312776  0.30650379    -0.21300
F429        F  0.27325766  0.86088368  0.35493037    -0.18500
F430        F  0.39981794  0.81182950  0.33262060    -0.18600
F431        F  0.39861718  0.82362520  0.38258186    -0.22400
F432        F  0.42380069  0.86477244  0.34855569    -0.24000
C433        C  0.10688320  0.55989515  0.13611036    -0.10800
C434        C  0.11893676  0.59405103  0.13156370     0.11700
C435        C  0.10900510  0.60431149  0.10568087    -0.02700
C436        C  0.08329819  0.58006890  0.08831387    -0.05400
C437        C  0.06930403  0.54583393  0.09419177    -0.16200
C438        C  0.08602978  0.53175645  0.11493345     0.02800
C439        C  0.14172323  0.61877570  0.15504203     0.12700
C440        C  0.12360949  0.64087975  0.09790605     0.63300
H441        H  0.07299170  0.58811677  0.07038387     0.12700
C442        C  0.07649502  0.46285897  0.11388428     0.55500
H443        H  0.11511103  0.55624715  0.15759903     0.08500
C444        C  0.12966799  0.62695006  0.18183023    -0.05300
C445        C  0.15221130  0.65167226  0.20217976    -0.06000
C446        C  0.18638266  0.66798404  0.19702581    -0.15600
C447        C  0.19850735  0.65959749  0.17029443    -0.01200
C448        C  0.17589546  0.63482650  0.14994225    -0.08700
C449        C  0.09307109  0.60933132  0.18900199     0.65500
H450        H  0.14329995  0.65812593  0.22272074     0.11000
C451        C  0.23500439  0.67761022  0.16259221     0.65100
H452        H  0.18469596  0.62799523  0.12955355     0.08300
F453        F  0.09066875  0.45239607  0.13694851    -0.19100
F454        F  0.08626806  0.45120938  0.08784360    -0.15300
F455        F  0.04419260  0.43518181  0.11606405    -0.18800
F456        F  0.15721942  0.65492532  0.09360038    -0.22200
F457        F  0.11774556  0.65755242  0.12154067    -0.23700
F458        F  0.11022492  0.64532475  0.07125610    -0.17700
F459        F  0.25197877  0.66930423  0.18343108    -0.20200
F460        F  0.24713645  0.71162589  0.16362205    -0.21300
F461        F  0.24090904  0.66933635  0.13347597    -0.18500
F462        F  0.08631925  0.62188750  0.21539666    -0.18600
F463        F  0.08190152  0.57589738  0.19329411    -0.22400
F464        F  0.07580915  0.61294382  0.16502025    -0.24000
C465        C  0.15654721  0.66649040  0.37729439    -0.10800
C466        C  0.13962987  0.63255469  0.36987047     0.11700
C467        C  0.14529123  0.62111764  0.34140645    -0.02700
C468        C  0.16945571  0.64413104  0.32184936    -0.05400
C469        C  0.18620890  0.67810352  0.32911350    -0.16200
C470        C  0.17969705  0.68976529  0.35708245     0.02800
C471        C  0.11647533  0.60932830  0.39260357     0.12700
C472        C  0.12506092  0.58506313  0.33131062     0.63300
H473        H  0.17438216  0.63600010  0.29997600     0.12700
C474        C  0.19703604  0.72643942  0.36556817     0.55500
H475        H  0.15115562  0.67455463  0.39896899     0.08500
C476        C  0.12752431  0.59739433  0.41700121    -0.05300
C477        C  0.10395340  0.57267008  0.43576664    -0.06000
C478        C  0.07014694  0.55911414  0.43015155    -0.15600
C479        C  0.05919836  0.57380977  0.40800104    -0.01200
C480        C  0.08286227  0.59864620  0.38919576    -0.08700
C481        C  0.16393227  0.60995894  0.42251529     0.65500
H482        H  0.11168103  0.56259445  0.45424485     0.11000
C483        C  0.02310956  0.56401391  0.40442473     0.63900
H484        H  0.07537721  0.60958904  0.37125764     0.08300
F485        F  0.23072946  0.73992004  0.36220702    -0.19100
F486        F  0.19088711  0.73166881  0.39569510    -0.15300
F487        F  0.18603325  0.74279868  0.34668400    -0.18800
F488        F  0.09266994  0.57732363  0.32705067    -0.22200
F489        F  0.12639652  0.56475136  0.35347388    -0.23700
F490        F  0.13641352  0.57865182  0.30403164    -0.17700
F491        F  0.01259227  0.57335693  0.43054110    -0.20200
F492        F  0.00400410  0.53011505  0.39996482    -0.21300
F493        F  0.01805208  0.57953326  0.37969127    -0.18500
F494        F  0.17785620  0.60423293  0.39671985    -0.18600
F495        F  0.16912252  0.59428164  0.44703376    -0.22400
F496        F  0.17980498  0.64369998  0.42885345    -0.24000
C497        C  0.61519315  0.09475662  0.61544242    -0.10800
C498        C  0.62496275  0.12873580  0.61503946     0.11700
C499        C  0.61425927  0.14120409  0.59074277    -0.02700
C500        C  0.59127923  0.11858720  0.56941008    -0.05400
C501        C  0.57901439  0.08411021  0.57139971    -0.16200
C502        C  0.59280552  0.07214046  0.59361056     0.02800
C503        C  0.64565293  0.15059586  0.64080772     0.12700
C504        C  0.62694136  0.17824191  0.58759158     0.63300
H505        H  0.58215338  0.12762412  0.55119471     0.12700
C506        C  0.58454132  0.03596635  0.59421531     0.55500
H507        H  0.62501654  0.08606933  0.63338104     0.08500
C508        C  0.63139664  0.15336670  0.66873429    -0.05300
C509        C  0.65192429  0.17569226  0.69164435    -0.06000
C510        C  0.68620461  0.19437878  0.68792745    -0.15600
C511        C  0.70059237  0.19127020  0.66010538    -0.01200
C512        C  0.67992934  0.16922246  0.63701667    -0.08700
C513        C  0.59463217  0.13244414  0.67436665     0.65500
H514        H  0.64140245  0.17816639  0.71308577     0.11000
C515        C  0.73741740  0.21183159  0.65436895     0.63900
H516        H  0.69034403  0.16640029  0.61565411     0.08300
F517        F  0.59857107  0.02939212  0.61924064    -0.19100
F518        F  0.59653179  0.02852200  0.56797345    -0.15300
F519        F  0.55090851  0.01523559  0.59569670    -0.18800
F520        F  0.66078313  0.19462176  0.58398052    -0.22200
F521        F  0.61918178  0.19052589  0.61352911    -0.23700
F522        F  0.61342813  0.18516723  0.56239938    -0.17700
F523        F  0.75422180  0.20163179  0.67353349    -0.20200
F524        F  0.74788107  0.24513011  0.65986908    -0.21300
F525        F  0.74545565  0.20854217  0.62435235    -0.18500
F526        F  0.58559102  0.13948378  0.70261892    -0.18600
F527        F  0.58558596  0.09911227  0.67359974    -0.22400
F528        F  0.57745184  0.13836394  0.65191367    -0.24000
C529        C  0.91548012  0.40343586  0.62869387    -0.10800
C530        C  0.87211606  0.37989529  0.62772910     0.11700
C531        C  0.85137749  0.36795646  0.59069365    -0.02700
C532        C  0.87472108  0.37979306  0.55653367    -0.05400
C533        C  0.91851464  0.40191338  0.55829224    -0.16200
C534        C  0.93888119  0.41419205  0.59461203     0.02800
C535        C  0.85257501  0.36596951  0.65698136     0.12700
C536        C  0.81495681  0.34412812  0.58756903     0.63300
H537        H  0.86248821  0.37496662  0.53450044     0.12700
C538        C  0.97567125  0.43454388  0.59728081     0.55500
H539        H  0.92857377  0.41278611  0.64992666     0.08500
C540        C  0.86129010  0.35035575  0.68067317    -0.05300
C541        C  0.83687169  0.32987465  0.70150010    -0.06000
C542        C  0.80491387  0.32517678  0.70099549    -0.15600
C543        C  0.79739782  0.34413269  0.68061412    -0.01200
C544        C  0.82154297  0.36426247  0.65927972    -0.08700
C545        C  0.89554939  0.35488521  0.68602258     0.65500
H546        H  0.84261909  0.31700798  0.71891913     0.11000
C547        C  0.76392996  0.34246180  0.68020267     0.63900
H548        H  0.81516804  0.37774860  0.64359566     0.08300
F549        F  0.98689052  0.41880041  0.61669804    -0.19100
F550        F  0.98415361  0.46554831  0.60933156    -0.15300
F551        F  0.99059682  0.43820664  0.56903575    -0.18800
F552        F  0.79715104  0.36044077  0.59220834    -0.22200
F553        F  0.80517026  0.31859768  0.60833127    -0.23700
F554        F  0.80804844  0.33028371  0.55836031    -0.17700
F555        F  0.75857024  0.35385303  0.70798230    -0.20200
F556        F  0.73932503  0.31004016  0.67499160    -0.21300
F557        F  0.76171634  0.36191034  0.65737963    -0.18500
F558        F  0.89594999  0.33440914  0.70881192    -0.18600
F559        F  0.91657886  0.38711883  0.69557656    -0.22400
F560        F  0.90725824  0.34719773  0.66004399    -0.24000
C561        C  0.85342604  0.35632128  0.85242705    -0.10800
C562        C  0.83925366  0.35707040  0.88069551     0.11700
C563        C  0.80475455  0.33686293  0.88469582    -0.02700
C564        C  0.78559079  0.31603857  0.86023189    -0.05400
C565        C  0.79981625  0.31508199  0.83200192    -0.16200
C566        C  0.83430988  0.33566848  0.82791392     0.02800
C567        C  0.86042104  0.38235052  0.90422578     0.12700
C568        C  0.78812157  0.33830151  0.91430495     0.63300
H569        H  0.75918726  0.30059338  0.86283321     0.12700
C570        C  0.85064660  0.33697481  0.79731183     0.55500
H571        H  0.87964330  0.37271061  0.84953326     0.08500
C572        C  0.88105580  0.37770523  0.92490173    -0.05300
C573        C  0.90010824  0.40330314  0.94630003    -0.06000
C574        C  0.89942364  0.43357890  0.94792856    -0.15600
C575        C  0.87800812  0.43770885  0.92669173    -0.01200
C576        C  0.85978202  0.41215931  0.90507637    -0.08700
C577        C  0.88330451  0.34600531  0.92395745     0.65500
H578        H  0.91656937  0.39996463  0.96137461     0.11000
C579        C  0.87344115  0.46947022  0.92646248     0.63900
H580        H  0.84456781  0.41540298  0.88823178     0.08300
F581        F  0.84940809  0.30690428  0.79138549    -0.19100
F582        F  0.88338704  0.36163495  0.79699605    -0.15300
F583        F  0.83452713  0.34352453  0.77414135    -0.18800
F584        F  0.78880821  0.36852261  0.91657145    -0.22200
F585        F  0.80425500  0.33484647  0.93935992    -0.23700
F586        F  0.75558241  0.31325998  0.91540390    -0.17700
F587        F  0.91187313  0.52277562  0.90409226    -0.20200
F588        F  0.86639759  0.46808531  0.95826484    -0.21300
F589        F  0.83979280  0.45448320  0.91828664    -0.18500
F590        F  0.90400157  0.34582505  0.94657086    -0.18600
F591        F  0.89541219  0.34291777  0.89579894    -0.22400
F592        F  0.85244708  0.31875911  0.92824701    -0.24000
C593        C  0.50389553  0.09768173  0.62428485    -0.10800
C594        C  0.50754985  0.12728372  0.61232419     0.11700
C595        C  0.51400868  0.13414170  0.58073190    -0.02700
C596        C  0.51704534  0.11078015  0.56203685    -0.05400
C597        C  0.51424207  0.08148303  0.57420676    -0.16200
C598        C  0.50612603  0.07402290  0.60555308     0.02800
C599        C  0.50616415  0.15119874  0.63414826     0.12700
C600        C  0.51826877  0.16615137  0.56709240     0.63300
H601        H  0.52267657  0.11563916  0.53785480     0.12700
C602        C  0.49905041  0.04168651  0.62041936     0.55500
H603        H  0.49895035  0.09290217  0.64860586     0.08500
C604        C  0.47604796  0.14806842  0.64443603    -0.05300
C605        C  0.47692542  0.17044709  0.66696356    -0.06000
C606        C  0.50667461  0.19434297  0.68085240    -0.15600
C607        C  0.53686308  0.19638326  0.67106514    -0.01200
C608        C  0.53589448  0.17550792  0.64691866    -0.08700
C609        C  0.44308200  0.12010892  0.63307509     0.65500
H610        H  0.45389457  0.16837069  0.67469328     0.11000
C611        C  0.56990732  0.21909622  0.68633332     0.63900
H612        H  0.55846440  0.17731069  0.63820896     0.08300
F613        F  0.46949059  0.02879551  0.63613747    -0.19100
F614        F  0.52391375  0.04781369  0.64106521    -0.15300
F615        F  0.49635337  0.01780937  0.59947012    -0.18800
F616        F  0.54529872  0.19314146  0.58017714    -0.22200
F617        F  0.49056443  0.16905845  0.57265331    -0.23700
F618        F  0.52303508  0.16711343  0.53563587    -0.17700
F619        F  0.56787015  0.21274899  0.71747739    -0.20200
F620        F  0.57877651  0.25201244  0.68164694    -0.21300
F621        F  0.59486605  0.21412513  0.67463374    -0.18500
F622        F  0.41719437  0.12494496  0.64209614    -0.18600
F623        F  0.43790741  0.09031785  0.64498695    -0.22400
F624        F  0.44256964  0.11789619  0.60139742    -0.24000
C625        C  0.48878003  0.38753948  0.90369909    -0.10800
C626        C  0.49413377  0.39041658  0.87201789     0.11700
C627        C  0.50300559  0.42089063  0.85743823    -0.02700
C628        C  0.50674329  0.44778343  0.87560653    -0.05400
C629        C  0.50461582  0.44596619  0.90774622    -0.16200
C630        C  0.49512294  0.41511270  0.92219827     0.02800
C631        C  0.49194038  0.36167768  0.85477504     0.12700
C632        C  0.50920318  0.42529729  0.82304007     0.63300
H633        H  0.51190161  0.47080497  0.86481554     0.12700
C634        C  0.49216634  0.40930997  0.95659024     0.55500
H635        H  0.48093848  0.36368745  0.91431257     0.08500
C636        C  0.51703639  0.35294227  0.85650641    -0.05300
C637        C  0.51587460  0.32876021  0.83596485    -0.06000
C638        C  0.49048591  0.31315707  0.81417631    -0.15600
C639        C  0.46442396  0.32082493  0.81365716    -0.01200
C640        C  0.46540676  0.34458424  0.83464932    -0.08700
C641        C  0.54491420  0.36909755  0.87980494     0.65500
H642        H  0.53509983  0.32204737  0.83658885     0.11000
C643        C  0.43648614  0.30550378  0.79034515     0.63900
H644        H  0.44601003  0.35107223  0.83480284     0.08300
F645        F  0.50057823  0.43752472  0.97394598    -0.19100
F646        F  0.51268899  0.39706342  0.96518445    -0.15300
F647        F  0.46004425  0.38587147  0.96349634    -0.18800
F648        F  0.48026806  0.40582070  0.80712535    -0.22200
F649        F  0.53239622  0.41627516  0.81451334    -0.23700
F650        F  0.52085177  0.45792836  0.81441911    -0.17700
F651        F  0.41651956  0.31988550  0.79182571    -0.20200
F652        F  0.41695875  0.27191657  0.79593318    -0.21300
F653        F  0.44915666  0.31000372  0.76089522    -0.18500
F654        F  0.56853279  0.35957652  0.87519217    -0.18600
F655        F  0.53248688  0.35977552  0.90909748    -0.22400
F656        F  0.56023672  0.40333571  0.87778998    -0.24000
C657        C  0.52747687  0.35720245  0.64062621    -0.10800
C658        C  0.50059752  0.36273936  0.63850479     0.11700
C659        C  0.47223218  0.34367904  0.65654791    -0.02700
C660        C  0.47282230  0.32138506  0.67809256    -0.05400
C661        C  0.50039497  0.31680117  0.68136345    -0.16200
C662        C  0.52766744  0.33396996  0.66117705     0.02800
C663        C  0.50264896  0.38773421  0.61603887     0.12700
C664        C  0.44153493  0.34688522  0.65286611     0.63300
H665        H  0.45176649  0.30766230  0.69288219     0.12700
C666        C  0.55632449  0.32700150  0.66005669     0.55500
H667        H  0.54847583  0.37138292  0.62586587     0.08500
C668        C  0.51176319  0.42097130  0.62440738    -0.05300
C669        C  0.51404426  0.44295807  0.60131939    -0.06000
C670        C  0.50884065  0.43348791  0.57022961    -0.15600
C671        C  0.49907314  0.40016294  0.56183847    -0.01200
C672        C  0.49643380  0.37789407  0.58500189    -0.08700
C673        C  0.51990957  0.43510513  0.65688413     0.65500
H674        H  0.52099675  0.46831050  0.60761688     0.11000
C675        C  0.49109523  0.38799691  0.52875998     0.63900
H676        H  0.48937813  0.35239454  0.57910681     0.08300
F677        F  0.57569694  0.33993998  0.68599217    -0.19100
F678        F  0.57616299  0.34119968  0.63468409    -0.15300
F679        F  0.54451157  0.29304968  0.65823509    -0.18800
F680        F  0.43167840  0.34174958  0.62244331    -0.22200
F681        F  0.44803231  0.37828430  0.66197643    -0.23700
F682        F  0.41560660  0.32388151  0.67032097    -0.17700
F683        F  0.48504613  0.35562158  0.52535477    -0.20200
F684        F  0.51697098  0.40783678  0.50966106    -0.21300
F685        F  0.46324855  0.38890231  0.51945731    -0.18500
F686        F  0.49706647  0.44434462  0.66609869    -0.18600
F687        F  0.55083775  0.46306535  0.65723505    -0.22400
F688        F  0.51992678  0.41306679  0.67801366    -0.24000
C689        C  0.51377588  0.88980963  0.41054332    -0.10800
C690        C  0.51107178  0.89234944  0.37880688     0.11700
C691        C  0.50403553  0.91663476  0.36705002    -0.02700
C692        C  0.49946236  0.93750599  0.38795110    -0.05400
C693        C  0.50119044  0.93436410  0.41984250    -0.16200
C694        C  0.50964202  0.91094145  0.43140954     0.02800
C695        C  0.51214676  0.86687118  0.35864664     0.12700
C696        C  0.50136996  0.92048339  0.33264348     0.63300
H697        H  0.49477625  0.95671588  0.37951781     0.12700
C698        C  0.51521817  0.90865638  0.46544798     0.55500
H699        H  0.51928455  0.87104707  0.41879742     0.08500
C700        C  0.54140841  0.87134765  0.34471549    -0.05300
C701        C  0.53902031  0.84807520  0.32228115    -0.06000
C702        C  0.50893290  0.81892561  0.31578769    -0.15600
C703        C  0.48097173  0.81192170  0.33425099    -0.01200
C704        C  0.48281028  0.83687389  0.35432018    -0.08700
C705        C  0.57495728  0.89933662  0.35477336     0.65500
H706        H  0.56098252  0.85248949  0.30992865     0.11000
C707        C  0.45003714  0.77801674  0.33454349     0.63900
H708        H  0.46128877  0.83312582  0.36710952     0.08300
F709        F  0.54433700  0.93613990  0.47456585    -0.19100
F710        F  0.51750596  0.88060955  0.47197124    -0.15300
F711        F  0.48958728  0.90728622  0.48254188    -0.18800
F712        F  0.47880623  0.89055686  0.31936026    -0.22200
F713        F  0.53152214  0.93093369  0.31879904    -0.23700
F714        F  0.49145747  0.94357316  0.32642813    -0.17700
F715        F  0.42908430  0.77549757  0.35829890    -0.20200
F716        F  0.45860411  0.75356984  0.33874131    -0.21300
F717        F  0.43287489  0.77232315  0.30731217    -0.18500
F718        F  0.60036550  0.89798337  0.33941423    -0.18600
F719        F  0.57906406  0.89671818  0.38585307    -0.22400
F720        F  0.57761068  0.92994028  0.34941159    -0.24000
C721        C  0.49728451  0.64074871  0.15676447    -0.10800
C722        C  0.51771270  0.65617704  0.13152972     0.11700
C723        C  0.53690699  0.69123600  0.13088537    -0.02700
C724        C  0.53363747  0.70979883  0.15499423    -0.05400
C725        C  0.51216167  0.69450048  0.17967862    -0.16200
C726        C  0.49381363  0.65928632  0.18092762     0.02800
C727        C  0.51410505  0.63534141  0.10416555     0.12700
C728        C  0.55911406  0.70989630  0.10417716     0.63300
H729        H  0.54742643  0.73672791  0.15416306     0.12700
C730        C  0.47067370  0.64125821  0.20737110     0.55500
H731        H  0.48299917  0.61393623  0.15669427     0.08500
C732        C  0.52931180  0.61540029  0.10171051    -0.05300
C733        C  0.52327548  0.59541173  0.07525272    -0.06000
C734        C  0.50271957  0.59505822  0.05160863    -0.15600
C735        C  0.48992925  0.61722730  0.05307321    -0.01200
C736        C  0.49493488  0.63616038  0.07989628    -0.08700
C737        C  0.55173236  0.61537624  0.12683301     0.65500
H738        H  0.53333045  0.57871856  0.07340634     0.11000
C739        C  0.47165583  0.62256622  0.02703975     0.63900
H740        H  0.48412995  0.65223832  0.08178601     0.08300
F741        F  0.48734293  0.65218824  0.23500076    -0.19100
F742        F  0.45808262  0.60718846  0.20535605    -0.15300
F743        F  0.44434822  0.64720071  0.20712709    -0.18800
F744        F  0.54204996  0.71914054  0.08433425    -0.22200
F745        F  0.56985444  0.69093867  0.08822109    -0.23700
F746        F  0.58678231  0.73822796  0.11470702    -0.17700
F747        F  0.43920524  0.61092813  0.03550690    -0.20200
F748        F  0.47259994  0.60704556  0.00003708    -0.21300
F749        F  0.48599705  0.65624790  0.02127353    -0.18500
F750        F  0.56517809  0.59536306  0.11918099    -0.18600
F751        F  0.53418473  0.60369837  0.15377484    -0.22400
F752        F  0.57732666  0.64736910  0.13171593    -0.24000
C753        C  0.51794042  0.63599636  0.41010171    -0.10800
C754        C  0.50946688  0.62546845  0.37958723     0.11700
C755        C  0.49952168  0.59214135  0.37128708    -0.02700
C756        C  0.49654533  0.56987641  0.39448121    -0.05400
C757        C  0.50244458  0.57968277  0.42557149    -0.16200
C758        C  0.51463477  0.61372412  0.43342201     0.02800
C759        C  0.51090142  0.65001218  0.35699493     0.12700
C760        C  0.49211369  0.58023990  0.33812243     0.63300
H761        H  0.48943140  0.54442944  0.38849913     0.12700
C762        C  0.52450011  0.62696003  0.46599283     0.55500
H763        H  0.52686848  0.66200032  0.41550546     0.08500
C764        C  0.48570925  0.65860141  0.35520431    -0.05300
C765        C  0.48839199  0.68169820  0.33311323    -0.06000
C766        C  0.51530696  0.69655333  0.31284525    -0.15600
C767        C  0.54099167  0.68844402  0.31521133    -0.01200
C768        C  0.53828082  0.66534343  0.33752063    -0.08700
C769        C  0.45594044  0.64323318  0.37636580     0.65500
H770        H  0.46918639  0.68835950  0.33151858     0.11000
C771        C  0.57071140  0.70317903  0.29404375     0.63900
H772        H  0.55752577  0.65883174  0.33993632     0.08300
F773        F  0.53135641  0.65965945  0.46883019    -0.19100
F774        F  0.55255498  0.62587844  0.47416487    -0.15300
F775        F  0.49943228  0.60821861  0.48622260    -0.18800
F776        F  0.52059375  0.59601008  0.32089020    -0.22200
F777        F  0.46901123  0.58746859  0.32613082    -0.23700
F778        F  0.47990134  0.54627478  0.33541165    -0.17700
F779        F  0.58918308  0.73710062  0.29917731    -0.20200
F780        F  0.56043334  0.69697777  0.26374305    -0.21300
F781        F  0.59103369  0.68966418  0.29892511    -0.18500
F782        F  0.43364762  0.65393292  0.36973987    -0.18600
F783        F  0.46590395  0.65195200  0.40650690    -0.22400
F784        F  0.43981629  0.60898372  0.37333015    -0.24000
C785        C  0.58802401  0.08423750  0.87674862    -0.10800
C786        C  0.61397930  0.11380295  0.88872398     0.11700
C787        C  0.61434076  0.12174124  0.92029235    -0.02700
C788        C  0.58816980  0.09954539  0.93884177    -0.05400
C789        C  0.56162093  0.07060413  0.92657094    -0.16200
C790        C  0.56215979  0.06187752  0.89536941     0.02800
C791        C  0.63738392  0.13809444  0.86668652     0.12700
C792        C  0.64169273  0.15383183  0.93415965     0.63300
H793        H  0.58734953  0.10537587  0.96289159     0.12700
C794        C  0.53629076  0.02969051  0.88057653     0.55500
H795        H  0.58777276  0.07879210  0.85241635     0.08500
C796        C  0.66430394  0.13600536  0.85411414    -0.05300
C797        C  0.68419556  0.15968399  0.83227279    -0.06000
C798        C  0.67816364  0.18537849  0.82297924    -0.15600
C799        C  0.65089181  0.18721392  0.83604557    -0.01200
C800        C  0.63077801  0.16297045  0.85716882    -0.08700
C801        C  0.67208959  0.10913093  0.86388282     0.65500
H802        H  0.70484421  0.15827717  0.82242661     0.11000
C803        C  0.64271931  0.21452305  0.82865621     0.63900
H804        H  0.60961858  0.16338499  0.86706677     0.08300
F805        F  0.51591359  0.00666451  0.90176501    -0.19100
F806        F  0.55162671  0.01532893  0.86409906    -0.15300
F807        F  0.51740504  0.03647480  0.86062842    -0.18800
F808        F  0.64264751  0.18101835  0.92025821    -0.22200
F809        F  0.67170975  0.15513119  0.93010780    -0.23700
F810        F  0.63717602  0.15627611  0.96532844    -0.17700
F811        F  0.63514152  0.21323155  0.79781247    -0.20200
F812        F  0.66917674  0.24527175  0.83621179    -0.21300
F813        F  0.61587075  0.21138265  0.84505464    -0.18500
F814        F  0.69968575  0.11190851  0.84908181    -0.18600
F815        F  0.64584129  0.07806852  0.85707691    -0.22400
F816        F  0.67800731  0.11149979  0.89511268    -0.24000
C817        C  0.48755494  0.16644004  0.86631930    -0.10800
C818        C  0.49968872  0.14495274  0.85826520     0.11700
C819        C  0.51209533  0.14608910  0.82821270    -0.02700
C820        C  0.51131313  0.16850063  0.80699100    -0.05400
C821        C  0.49915288  0.18993815  0.81512040    -0.16200
C822        C  0.48795224  0.18967701  0.84543372     0.02800
C823        C  0.50010018  0.12227069  0.88210712     0.12700
C824        C  0.52680071  0.12432172  0.81887944     0.63300
H825        H  0.52029631  0.16956656  0.78381043     0.12700
C826        C  0.47809421  0.21498861  0.85599709     0.55500
H827        H  0.47832455  0.16526189  0.88939657     0.08500
C828        C  0.52375336  0.13380243  0.90602211    -0.05300
C829        C  0.52377466  0.11060500  0.92665506    -0.06000
C830        C  0.50100358  0.07642003  0.92426348    -0.15600
C831        C  0.47564586  0.06533958  0.90173767    -0.01200
C832        C  0.47600031  0.08858576  0.88080758    -0.08700
C833        C  0.54818406  0.17054288  0.91044253     0.65500
H834        H  0.54147299  0.11912392  0.94525372     0.11000
C835        C  0.44786993  0.02952830  0.89981337     0.63900
H836        H  0.45724395  0.08071937  0.86317334     0.08300
F837        F  0.50418251  0.24672888  0.85167363    -0.19100
F838        F  0.46981167  0.21169928  0.88683037    -0.15300
F839        F  0.45124278  0.21107680  0.83931129    -0.18800
F840        F  0.55269495  0.13054101  0.83820695    -0.22200
F841        F  0.53865173  0.13034675  0.78908109    -0.23700
F842        F  0.50319605  0.09114055  0.82069027    -0.17700
F843        F  0.42894091  0.02357787  0.87363108    -0.20200
F844        F  0.42732741  0.02271115  0.92486276    -0.21300
F845        F  0.46027980  0.00787448  0.89924462    -0.18500
F846        F  0.57294907  0.17568108  0.93088815    -0.18600
F847        F  0.53188697  0.18657004  0.92185560    -0.22400
F848        F  0.56284015  0.18468683  0.88287942    -0.24000
C849        C  0.48196785  0.82336559  0.12993473    -0.10800
C850        C  0.49408894  0.85711159  0.13698457     0.11700
C851        C  0.50917135  0.86988461  0.16591757    -0.02700
C852        C  0.51280525  0.84852056  0.18639621    -0.05400
C853        C  0.50023965  0.81466009  0.17957464    -0.16200
C854        C  0.48445159  0.80168890  0.15090380     0.02800
C855        C  0.48818430  0.87779619  0.11460264     0.12700
C856        C  0.52031586  0.90558499  0.17557424     0.63300
H857        H  0.52437996  0.85780808  0.20855923     0.12700
C858        C  0.46986960  0.76513295  0.14251522     0.55500
H859        H  0.46962578  0.81394299  0.10809395     0.08500
C860        C  0.50935235  0.89354014  0.08964565    -0.05300
C861        C  0.50253108  0.91360391  0.07020216    -0.06000
C862        C  0.47537839  0.91889817  0.07474296    -0.15600
C863        C  0.45325183  0.90174907  0.10002801    -0.01200
C864        C  0.46008333  0.88086787  0.11851400    -0.08700
C865        C  0.53869197  0.88849423  0.08326420     0.65500
H866        H  0.51848435  0.92488744  0.05075846     0.11000
C867        C  0.42246870  0.90619317  0.10934153     0.63900
H868        H  0.44349104  0.86684643  0.13691507     0.08300
F869        F  0.46102356  0.75911817  0.11180183    -0.19100
F870        F  0.44198352  0.74659042  0.15994537    -0.15300
F871        F  0.49253340  0.75466594  0.14794914    -0.18800
F872        F  0.49339962  0.91053860  0.17712360    -0.22200
F873        F  0.54258260  0.92728630  0.15458449    -0.23700
F874        F  0.53535540  0.91316038  0.20414526    -0.17700
F875        F  0.37012822  0.88222796  0.08171519    -0.20200
F876        F  0.44161865  0.94122464  0.11220178    -0.21300
F877        F  0.42176577  0.90149661  0.14144184    -0.18500
F878        F  0.55649869  0.90616600  0.05796815    -0.18600
F879        F  0.52788501  0.85517286  0.07763516    -0.22400
F880        F  0.55965138  0.89890174  0.10830836    -0.24000
C881        C  0.38492783  0.84951056  0.09746189    -0.10800
C882        C  0.36807079  0.86629915  0.12600953     0.11700
C883        C  0.37401074  0.90861090  0.12164250    -0.02700
C884        C  0.39486718  0.93300898  0.08738502    -0.05400
C885        C  0.41218144  0.91571501  0.05893201    -0.16200
C886        C  0.40546758  0.87300647  0.06309790     0.02800
C887        C  0.34645252  0.84419209  0.14984374     0.12700
C888        C  0.36219171  0.92310088  0.14618296     0.63300
H889        H  0.40048523  0.95863637  0.08587267     0.12700
C890        C  0.41516041  0.85639893  0.03862845     0.55500
H891        H  0.38067633  0.82441920  0.09982449     0.08500
C892        C  0.31362541  0.81968302  0.14302665    -0.05300
C893        C  0.29440767  0.79841115  0.16648771    -0.06000
C894        C  0.30729395  0.80084182  0.19592261    -0.15600
C895        C  0.33989322  0.82579811  0.20294733    -0.01200
C896        C  0.35913197  0.84721243  0.17948252    -0.08700
C897        C  0.29883482  0.81619049  0.11125997     0.65500
H898        H  0.26916618  0.77944338  0.16201361     0.11000
C899        C  0.35374951  0.83049314  0.23524317     0.63900
H900        H  0.38421946  0.86635533  0.18411312     0.08300
F901        F  0.38724974  0.82826124  0.02836370    -0.19100
F902        F  0.43685539  0.84712965  0.05049512    -0.15300
F903        F  0.42968061  0.87736710  0.01414167    -0.18800
F904        F  0.37840421  0.92526266  0.17333326    -0.22200
F905        F  0.32869586  0.90299184  0.15033770    -0.23700
F906        F  0.36852618  0.95454968  0.13812134    -0.17700
F907        F  0.35449810  0.80224689  0.24413738    -0.20200
F908        F  0.33415869  0.83649506  0.25534823    -0.21300
F909        F  0.38550562  0.85708639  0.23725043    -0.18500
F910        F  0.26592715  0.79195598  0.11028757    -0.18600
F911        F  0.31552022  0.80744116  0.09011921    -0.22400
F912        F  0.30107152  0.84600291  0.10285161    -0.24000
loop_ 
_geom_bond_atom_site_label_1 
_geom_bond_atom_site_label_2 
_geom_bond_distance 
_geom_bond_site_symmetry_2 
_ccdc_geom_bond_type 
C1            S2   1.800       .  S
C1            S5   1.789       .  S
C1            C9   1.350   1_546  D
S2            C3   1.794       .  S
C3            C4   1.352       .  D
C3          C830   1.502       .  S
C4            S5   1.794       .  S
C4          C789   1.479       .  S
C6           S10   1.811       .  S
C6            C7   1.349       .  D
C6          C862   1.537       .  S
C7            S8   1.785       .  S
C7          C885   1.439       .  S
S8            C9   1.784       .  S
C9           S10   1.802       .  S
O11         Cu19   2.019       .  S
O11          C21   1.278       .  A
O12         Cu19   2.008       .  S
O12          C22   1.277       .  A
O13         Cu19   1.998       .  S
O13          C23   1.277       .  A
O14         Cu19   2.012       .  S
O14          C24   1.276       .  A
O15         Cu20   2.031       .  S
O15          C24   1.281       .  A
O16         Cu20   2.023       .  S
O16          C23   1.278       .  A
O17         Cu20   1.997       .  S
O17          C22   1.276       .  A
O18         Cu20   2.000       .  S
O18          C21   1.277       .  A
Cu19        Cu20   2.366       .  S
C21         C702   1.496       .  S
C22         C725   1.477       .  S
C23         C766   1.492       .  S
C24         C853   1.483       .  S
O25         Cu33   2.016       .  S
O25          C35   1.277       .  A
O26         Cu33   2.011       .  S
O26          C36   1.277       .  A
O27         Cu33   1.999       .  S
O27          C37   1.278       .  A
O28         Cu33   1.996       .  S
O28          C38   1.274       .  A
O29         Cu34   1.991       .  S
O29          C38   1.277       .  A
O30         Cu34   1.986       .  S
O30          C37   1.273       .  A
O31         Cu34   2.033       .  S
O31          C36   1.281       .  A
O32         Cu34   2.023       .  S
O32          C35   1.279       .  A
Cu33        Cu34   2.366       .  S
C35         C821   1.480       .  S
C36         C661   1.498       .  S
C37         C638   1.478       .  S
C38         C606   1.489       .  S
O39         Cu47   2.014       .  S
O39          C49   1.279       .  A
O40         Cu47   1.995       .  S
O40          C50   1.280       .  A
O41         Cu47   2.013       .  S
O41          C51   1.276       .  A
O42         Cu47   2.011       .  S
O42          C52   1.276       .  A
O43         Cu48   2.037       .  S
O43          C52   1.282       .  A
O44         Cu48   2.041       .  S
O44          C51   1.282       .  A
O45         Cu48   1.991       .  S
O45          C50   1.272       .  A
O46         Cu48   1.980       .  S
O46          C49   1.271       .  A
Cu47        Cu48   2.365       .  S
C49         C798   1.493       .  S
C50         C542   1.482       .  S
C51         C565   1.490       .  S
C52         C510   1.488       .  S
O53         Cu61   2.040       .  S
O53          C63   1.282       .  A
O54         Cu61   2.029       .  S
O54          C64   1.279       .  A
O55         Cu61   1.991       .  S
O55          C65   1.275       .  A
O56         Cu61   1.988       .  S
O56          C66   1.273       .  A
O57         Cu62   2.005       .  S
O57          C66   1.278       .  A
O58         Cu62   2.000       .  S
O58          C65   1.276       .  A
O59         Cu62   2.014       .  S
O59          C64   1.280       .  A
O60         Cu62   2.025       .  S
O60          C63   1.278       .  A
Cu61        Cu62   2.370       .  S
C63         C446   1.496       .  S
C64         C414   1.506       .  S
C65         C894   1.463       .  S
C66         C469   1.465       .  S
C67          S68   1.805       .  S
C67          S71   1.787   1_554  S
C67          C75   1.354       .  D
S68          C69   1.806   1_554  S
C69          C70   1.356       .  D
C69         C574   1.538       .  S
C70          S71   1.793       .  S
C70         C382   1.450       .  S
C72          S76   1.809       .  S
C72          C73   1.310       .  D
C72         C437   1.541       .  S
C73          S74   1.780   1_455  S
C73         C341   1.399       .  S
S74          C75   1.793       .  S
C75          S76   1.817   1_655  S
C77          S78   1.795       .  S
C77          S81   1.812       .  S
C77          C85   1.350   1_655  D
S78          C79   1.779       .  S
C79          C80   1.312       .  D
C79         C533   1.406       .  S
C80          S81   1.801       .  S
C80         C309   1.529       .  S
C82          S86   1.793       .  S
C82          C83   1.352       .  D
C82         C478   1.483       .  S
C83          S84   1.793       .  S
C83         C277   1.498       .  S
S84          C85   1.803       .  S
C85          S86   1.790       .  S
O87         Cu95   1.996       .  S
O87          C97   1.274       .  A
O88         Cu95   1.990       .  S
O88          C98   1.274       .  A
O89         Cu95   2.049       .  S
O89          C99   1.284       .  A
O90         Cu95   2.035       .  S
O90         C100   1.280       .  A
O91         Cu96   2.016       .  S
O91         C100   1.279       .  A
O92         Cu96   2.023       .  S
O92          C99   1.277       .  A
O93         Cu96   2.004       .  S
O93          C98   1.277       .  A
O94         Cu96   2.001       .  S
O94          C97   1.278       .  A
Cu95        Cu96   2.364       .  S
C97         C350   1.470       .  S
C98         C254   1.469       .  S
C99         C222   1.517       .  S
C100        C286   1.510       .  S
O101       Cu109   2.025       .  S
O101        C111   1.277       .  A
O102       Cu109   2.022       .  S
O102        C112   1.278       .  A
O103       Cu109   2.001       .  S
O103        C113   1.276       .  A
O104       Cu109   2.009       .  S
O104        C114   1.277       .  A
O105       Cu110   1.999       .  S
O105        C114   1.276       .  A
O106       Cu110   1.995       .  S
O106        C113   1.276       .  A
O107       Cu110   2.022       .  S
O107        C112   1.279       .  A
O108       Cu110   2.023       .  S
O108        C111   1.282       .  A
Cu109      Cu110   2.369       .  S
C111        C149   1.506       .  S
C112        C318   1.481       .  S
C113        C373   1.479       .  S
C114        C181   1.473       .  S
C115        S116   1.793       .  S
C115        S119   1.809       .  S
C115        C123   1.358       .  D
S116        C117   1.798       .  S
C117        C118   1.351       .  D
C117        C629   1.483       .  S
C118        S119   1.802       .  S
C118        C158   1.503       .  S
C120        S124   1.799   1_554  S
C120        C121   1.353       .  D
C120        C734   1.483       .  S
C121        S122   1.802   1_554  S
C121        C213   1.510       .  S
S122        C123   1.807       .  S
C123        S124   1.793       .  S
C125        S126   1.797       .  S
C125        S129   1.801       .  S
C125        C133   1.353       .  D
S126        C127   1.796       .  S
C127        C128   1.351       .  D
C127        C190   1.488       .  S
C128        S129   1.794       .  S
C128        C670   1.494       .  S
C130        S134   1.792       .  S
C130        C131   1.352       .  D
C130        C245   1.482       .  S
C131        S132   1.799       .  S
C131        C757   1.500       .  S
S132        C133   1.800       .  S
C133        S134   1.794       .  S
C135        S136   1.805       .  S
C135        S139   1.790       .  S
C135        C143   1.353   1_545  D
S136        C137   1.799       .  S
C137        C138   1.352       .  D
C137        C501   1.504       .  S
C138        S139   1.792       .  S
C138        C597   1.477       .  S
C140        S144   1.800       .  S
C140        C141   1.351       .  D
C140        C405   1.494       .  S
C141        S142   1.794       .  S
C141        C693   1.489       .  S
S142        C143   1.790       .  S
C143        S144   1.803       .  S
C145        C146   1.404       .  A
C145        C150   1.414       .  A
C145        H155   1.081       .  S
C146        C151   1.497       .  S
C146        C147   1.419       .  A
C147        C148   1.406       .  A
C147        C152   1.519       .  S
C148        C149   1.409       .  A
C148        H153   1.084       .  S
C149        C150   1.428       .  A
C150        C154   1.521       .  S
C151        C156   1.416       .  A
C151        C160   1.404       .  A
C152        F168   1.384       .  S
C152        F169   1.381       .  S
C152        F170   1.384       .  S
C154        F165   1.385       .  S
C154        F166   1.383       .  S
C154        F167   1.381       .  S
C156        C157   1.413       .  A
C156        C161   1.519       .  S
C157        C158   1.407       .  A
C157        H162   1.083       .  S
C158        C159   1.422       .  A
C159        C160   1.412       .  A
C159        C163   1.517       .  S
C160        H164   1.084       .  S
C161        F174   1.380       .  S
C161        F175   1.383       .  S
C161        F176   1.384       .  S
C163        F171   1.383       .  S
C163        F172   1.380       .  S
C163        F173   1.383       .  S
C177        C178   1.401       .  A
C177        C182   1.404       .  A
C177        H187   1.084       .  S
C178        C183   1.477       .  S
C178        C179   1.414       .  A
C179        C180   1.406       .  A
C179        C184   1.518       .  S
C180        C181   1.404       .  A
C180        H185   1.083       .  S
C181        C182   1.416       .  A
C182        C186   1.517       .  S
C183        C188   1.416       .  A
C183        C192   1.403       .  A
C184        F200   1.382       .  S
C184        F201   1.382       .  S
C184        F202   1.385       .  S
C186        F197   1.384       .  S
C186        F198   1.383       .  S
C186        F199   1.382       .  S
C188        C189   1.403       .  A
C188        C193   1.519       .  S
C189        C190   1.404       .  A
C189        H194   1.081       .  S
C190        C191   1.416       .  A
C191        C192   1.405       .  A
C191        C195   1.520       .  S
C192        H196   1.084       .  S
C193        F206   1.383       .  S
C193        F207   1.383       .  S
C193        F208   1.381       .  S
C195        F203   1.385       .  S
C195        F204   1.382       .  S
C195        F205   1.382       .  S
C209        C210   1.405       .  A
C209        C214   1.416       .  A
C209        H219   1.083       .  S
C210        C215   1.502       .  S
C210        C211   1.417       .  A
C211        C212   1.410       .  A
C211        C216   1.518       .  S
C212        C213   1.407       .  A
C212        H217   1.082       .  S
C213        C214   1.422       .  A
C214        C218   1.519       .  S
C215        C220   1.416       .  A
C215        C224   1.400       .  A
C216        F232   1.381       .  S
C216        F233   1.380       .  S
C216        F234   1.385       .  S
C218        F229   1.385       .  S
C218        F230   1.381       .  S
C218        F231   1.379   1_554  S
C220        C221   1.416       .  A
C220        C225   1.519       .  S
C221        C222   1.413       .  A
C221        H226   1.082       .  S
C222        C223   1.433       .  A
C223        C224   1.415       .  A
C223        C227   1.521       .  S
C224        H228   1.083       .  S
C225        F238   1.384       .  S
C225        F239   1.382       .  S
C225        F240   1.380       .  S
C227        F235   1.383       .  S
C227        F236   1.384       .  S
C227        F237   1.385       .  S
C241        C242   1.402       .  A
C241        C246   1.404       .  A
C241        H251   1.084       .  S
C242        C247   1.479       .  S
C242        C243   1.415       .  A
C243        C244   1.404       .  A
C243        C248   1.521       .  S
C244        C245   1.403       .  A
C244        H249   1.083       .  S
C245        C246   1.416       .  A
C246        C250   1.516       .  S
C247        C252   1.415       .  A
C247        C256   1.400       .  A
C248        F264   1.382       .  S
C248        F265   1.382       .  S
C248        F266   1.384       .  S
C250        F261   1.384       .  S
C250        F262   1.382       .  S
C250        F263   1.381       .  S
C252        C253   1.405       .  A
C252        C257   1.518       .  S
C253        C254   1.403       .  A
C253        H258   1.083       .  S
C254        C255   1.415       .  A
C255        C256   1.402       .  A
C255        C259   1.520       .  S
C256        H260   1.080       .  S
C257        F270   1.385       .  S
C257        F271   1.382       .  S
C257        F272   1.382       .  S
C259        F267   1.382       .  S
C259        F268   1.384       .  S
C259        F269   1.384       .  S
C273        C274   1.405       .  A
C273        C278   1.409       .  A
C273        H283   1.084       .  S
C274        C279   1.500       .  S
C274        C275   1.419       .  A
C275        C276   1.413       .  A
C275        C280   1.520       .  S
C276        C277   1.406       .  A
C276        H281   1.083       .  S
C277        C278   1.418       .  A
C278        C282   1.517       .  S
C279        C284   1.415       .  A
C279        C288   1.402       .  A
C280        F296   1.382       .  S
C280        F297   1.382       .  S
C280        F298   1.384       .  S
C282        F293   1.383       .  S
C282        F294   1.382       .  S
C282        F295   1.380       .  S
C284        C285   1.412       .  A
C284        C289   1.521       .  S
C285        C286   1.413       .  A
C285        H290   1.082       .  S
C286        C287   1.427       .  A
C287        C288   1.413       .  A
C287        C291   1.520       .  S
C288        H292   1.079       .  S
C289        F302   1.384       .  S
C289        F303   1.381       .  S
C289        F304   1.383       .  S
C291        F299   1.383       .  S
C291        F300   1.384       .  S
C291        F301   1.385       .  S
C305        C306   1.404       .  A
C305        C310   1.485       .  A
C305        H315   1.062       .  S
C306        C311   1.495       .  S
C306        C307   1.395       .  A
C307        C308   1.389       .  A
C307        C312   1.520       .  S
C308        C309   1.410       .  A
C308        H313   1.080       .  S
C309        C310   1.527       .  A
C310        C314   2.985       .  S
C311        C316   1.418       .  A
C311        C320   1.404       .  A
C312        F328   1.382       .  S
C312        F329   1.382       .  S
C312        F330   1.385       .  S
C314        F325   1.418       .  S
C314        F326   1.415       .  S
C314        F327   1.420       .  S
C316        C317   1.412       .  A
C316        C321   1.518       .  S
C317        C318   1.403       .  A
C317        H322   1.083       .  S
C318        C319   1.415       .  A
C319        C320   1.409       .  A
C319        C323   1.517       .  S
C320        H324   1.083       .  S
C321        F334   1.384       .  S
C321        F335   1.382       .  S
C321        F336   1.382       .  S
C323        F331   1.384       .  S
C323        F332   1.383       .  S
C323        F333   1.383       .  S
C337        C338   1.757       .  A
C337        C342   1.760       .  A
C337        H347   1.073       .  S
C338        C343   1.522       .  S
C338        C339   1.819       .  A
C339        C340   1.766       .  A
C339        C344   1.508       .  S
C340        C341   1.779       .  A
C340        H345   1.082       .  S
C341        C342   1.788       .  A
C342        C346   1.501       .  S
C343        C348   1.444       .  A
C343        C352   1.413       .  A
C344        F360   1.379       .  S
C344        F361   1.381       .  S
C344        F362   1.383       .  S
C346        F357   1.382       .  S
C346        F358   1.382       .  S
C346        F359   1.381       .  S
C348        C349   1.407       .  A
C348        C353   1.525       .  S
C349        C350   1.388       .  A
C349        H354   1.083       .  S
C350        C351   1.408       .  A
C351        C352   1.404       .  A
C351        C355   1.522       .  S
C352        H356   1.065       .  S
C353        F366   1.386       .  S
C353        F367   1.378       .  S
C353        F368   1.368       .  S
C355        F363   1.382       .  S
C355        F364   1.382       .  S
C355        F365   1.385       .  S
C369        C370   1.400       .  A
C369        C374   1.406       .  A
C369        H379   1.080       .  S
C370        C375   1.469       .  S
C370        C371   1.411       .  A
C371        C372   1.402       .  A
C371        C376   1.518       .  S
C372        C373   1.405       .  A
C372        H377   1.083       .  S
C373        C374   1.421       .  A
C374        C378   1.521       .  S
C375        C380   1.850       .  A
C375        C384   1.826       .  A
C376        F392   1.382       .  S
C376        F393   1.383       .  S
C376        F394   1.384       .  S
C378        F389   1.385       .  S
C378        F390   1.383       .  S
C378        F391   1.384       .  S
C380        C381   1.848       .  A
C380        C385   1.493       .  S
C381        C382   1.856       .  A
C381        H386   1.081       .  S
C382        C383   1.846       .  A
C383        C384   1.830       .  A
C383        C387   1.500       .  S
C384        H388   1.082       .  S
C385        F398   1.381       .  S
C385        F399   1.382       .  S
C385        F400   1.382       .  S
C387        F395   1.381       .  S
C387        F396   1.382       .  S
C387        F397   1.381       .  S
C401        C402   1.402       .  A
C401        C406   1.408       .  A
C401        H411   1.085       .  S
C402        C407   1.493       .  S
C402        C403   1.417       .  A
C403        C404   1.409       .  A
C403        C408   1.519       .  S
C404        C405   1.404       .  A
C404        H409   1.083       .  S
C405        C406   1.421       .  A
C406        C410   1.517       .  S
C407        C412   1.412       .  A
C407        C416   1.401       .  A
C408        F424   1.382       .  S
C408        F425   1.385       .  S
C408        F426   1.382       .  S
C410        F421   1.383       .  S
C410        F422   1.384       .  S
C410        F423   1.379       .  S
C412        C413   1.406       .  A
C412        C417   1.517       .  S
C413        C414   1.411       .  A
C413        H418   1.082       .  S
C414        C415   1.429       .  A
C415        C416   1.414       .  A
C415        C419   1.519       .  S
C416        H420   1.083       .  S
C417        F430   1.384       .  S
C417        F431   1.382       .  S
C417        F432   1.378       .  S
C419        F427   1.382       .  S
C419        F428   1.383       .  S
C419        F429   1.385       .  S
C433        C434   1.407       .  A
C433        C438   1.490       .  A
C433        H443   1.059       .  S
C434        C439   1.505       .  S
C434        C435   1.394       .  A
C435        C436   1.389       .  A
C435        C440   1.520       .  S
C436        C437   1.409       .  A
C436        H441   1.079       .  S
C437        C438   1.538       .  A
C438        C442   2.988       .  S
C439        C444   1.418       .  A
C439        C448   1.405       .  A
C440        F456   1.382       .  S
C440        F457   1.382       .  S
C440        F458   1.385       .  S
C442        F453   1.418       .  S
C442        F454   1.415       .  S
C442        F455   1.421       .  S
C444        C445   1.413       .  A
C444        C449   1.518       .  S
C445        C446   1.405       .  A
C445        H450   1.083       .  S
C446        C447   1.422       .  A
C447        C448   1.415       .  A
C447        C451   1.519       .  S
C448        H452   1.083       .  S
C449        F462   1.384       .  S
C449        F463   1.381       .  S
C449        F464   1.382       .  S
C451        F459   1.382       .  S
C451        F460   1.384       .  S
C451        F461   1.385       .  S
C465        C466   1.399       .  A
C465        C470   1.403       .  A
C465        H475   1.083       .  S
C466        C471   1.474       .  S
C466        C467   1.415       .  A
C467        C468   1.400       .  A
C467        C472   1.515       .  S
C468        C469   1.399       .  A
C468        H473   1.084       .  S
C469        C470   1.416       .  A
C470        C474   1.516       .  S
C471        C476   1.413       .  A
C471        C480   1.400       .  A
C472        F488   1.382       .  S
C472        F489   1.377       .  S
C472        F490   1.385       .  S
C474        F485   1.383       .  S
C474        F486   1.385       .  S
C474        F487   1.382       .  S
C476        C477   1.400       .  A
C476        C481   1.518       .  S
C477        C478   1.401       .  A
C477        H482   1.082       .  S
C478        C479   1.419       .  A
C479        C480   1.405       .  A
C479        C483   1.520       .  S
C480        H484   1.083       .  S
C481        F494   1.381       .  S
C481        F495   1.385       .  S
C481        F496   1.382       .  S
C483        F491   1.382       .  S
C483        F492   1.380       .  S
C483        F493   1.385       .  S
C497        C498   1.403       .  A
C497        C502   1.413       .  A
C497        H507   1.083       .  S
C498        C503   1.494       .  S
C498        C499   1.415       .  A
C499        C500   1.409       .  A
C499        C504   1.518       .  S
C500        C501   1.406       .  A
C500        H505   1.082       .  S
C501        C502   1.422       .  A
C502        C506   1.519       .  S
C503        C508   1.417       .  A
C503        C512   1.403       .  A
C504        F520   1.383       .  S
C504        F521   1.382       .  S
C504        F522   1.384       .  S
C506        F517   1.385       .  S
C506        F518   1.382       .  S
C506        F519   1.379       .  S
C508        C509   1.410       .  A
C508        C513   1.518       .  S
C509        C510   1.403       .  A
C509        H514   1.083       .  S
C510        C511   1.421       .  A
C511        C512   1.412       .  A
C511        C515   1.519       .  S
C512        H516   1.083       .  S
C513        F526   1.384       .  S
C513        F527   1.382       .  S
C513        F528   1.379       .  S
C515        F523   1.382       .  S
C515        F524   1.384       .  S
C515        F525   1.385       .  S
C529        C530   1.763       .  A
C529        C534   1.763       .  A
C529        H539   1.072       .  S
C530        C535   1.516       .  S
C530        C531   1.819       .  A
C531        C532   1.765       .  A
C531        C536   1.507       .  S
C532        C533   1.779       .  A
C532        H537   1.082       .  S
C533        C534   1.785       .  A
C534        C538   1.500       .  S
C535        C540   1.435       .  A
C535        C544   1.412       .  A
C536        F552   1.380       .  S
C536        F553   1.382       .  S
C536        F554   1.383       .  S
C538        F549   1.382       .  S
C538        F550   1.381       .  S
C538        F551   1.381       .  S
C540        C541   1.402       .  A
C540        C545   1.523       .  S
C541        C542   1.396       .  A
C541        H546   1.082       .  S
C542        C543   1.414       .  A
C543        C544   1.406       .  A
C543        C547   1.523       .  S
C544        H548   1.066       .  S
C545        F558   1.386       .  S
C545        F559   1.380       .  S
C545        F560   1.370       .  S
C547        F555   1.383       .  S
C547        F556   1.383       .  S
C547        F557   1.386       .  S
C561        C562   1.402       .  A
C561        C566   1.411       .  A
C561        H571   1.083       .  S
C562        C567   1.494       .  S
C562        C563   1.418       .  A
C563        C564   1.413       .  A
C563        C568   1.519       .  S
C564        C565   1.404       .  A
C564        H569   1.083       .  S
C565        C566   1.421       .  A
C566        C570   1.519       .  S
C567        C572   1.413       .  A
C567        C576   1.391       .  A
C568        F584   1.382       .  S
C568        F585   1.383       .  S
C568        F586   1.384       .  S
C570        F581   1.382       .  S
C570        F582   1.384       .  S
C570        F583   1.383       .  S
C572        C573   1.415       .  A
C572        C577   1.518       .  S
C573        C574   1.415       .  A
C573        H578   1.080       .  S
C574        C575   1.445       .  A
C575        C576   1.412       .  A
C575        C579   1.582       .  S
C576        H580   1.084       .  S
C577        F590   1.385       .  S
C577        F591   1.382       .  S
C577        F592   1.382       .  S
C579        F587   2.434       .  S
C579        F588   1.417       .  S
C579        F589   1.413       .  S
C593        C594   1.399       .  A
C593        C598   1.399       .  A
C593        H603   1.085       .  S
C594        C599   1.473       .  S
C594        C595   1.413       .  A
C595        C596   1.405       .  A
C595        C600   1.520       .  S
C596        C597   1.404       .  A
C596        H601   1.083       .  S
C597        C598   1.416       .  A
C598        C602   1.515       .  S
C599        C604   1.410       .  A
C599        C608   1.397       .  A
C600        F616   1.382       .  S
C600        F617   1.382       .  S
C600        F618   1.384       .  S
C602        F613   1.384       .  S
C602        F614   1.383       .  S
C602        F615   1.380       .  S
C604        C605   1.402       .  A
C604        C609   1.521       .  S
C605        C606   1.412       .  A
C605        H610   1.082       .  S
C606        C607   1.426       .  A
C607        C608   1.403       .  A
C607        C611   1.522       .  S
C608        H612   1.081       .  S
C609        F622   1.385       .  S
C609        F623   1.382       .  S
C609        F624   1.381       .  S
C611        F619   1.384       .  S
C611        F620   1.383       .  S
C611        F621   1.385       .  S
C625        C626   1.397       .  A
C625        C630   1.401       .  A
C625        H635   1.084       .  S
C626        C631   1.476       .  S
C626        C627   1.415       .  A
C627        C628   1.401       .  A
C627        C632   1.521       .  S
C628        C629   1.403       .  A
C628        H633   1.081       .  S
C629        C630   1.422       .  A
C630        C634   1.519       .  S
C631        C636   1.415       .  A
C631        C640   1.398       .  A
C632        F648   1.381       .  S
C632        F649   1.384       .  S
C632        F650   1.384       .  S
C634        F645   1.378       .  S
C634        F646   1.384       .  S
C634        F647   1.383       .  S
C636        C637   1.402       .  A
C636        C641   1.521       .  S
C637        C638   1.405       .  A
C637        H642   1.083       .  S
C638        C639   1.423       .  A
C639        C640   1.403       .  A
C639        C643   1.521       .  S
C640        H644   1.083       .  S
C641        F654   1.384       .  S
C641        F655   1.382       .  S
C641        F656   1.382       .  S
C643        F651   1.384       .  S
C643        F652   1.383       .  S
C643        F653   1.384       .  S
C657        C658   1.400       .  A
C657        C662   1.409       .  A
C657        H667   1.084       .  S
C658        C663   1.489       .  S
C658        C659   1.415       .  A
C659        C660   1.412       .  A
C659        C664   1.518       .  S
C660        C661   1.409       .  A
C660        H665   1.083       .  S
C661        C662   1.426       .  A
C662        C666   1.520       .  S
C663        C668   1.420       .  A
C663        C672   1.406       .  A
C664        F680   1.383       .  S
C664        F681   1.381       .  S
C664        F682   1.384       .  S
C666        F677   1.382       .  S
C666        F678   1.385       .  S
C666        F679   1.384       .  S
C668        C669   1.404       .  A
C668        C673   1.519       .  S
C669        C670   1.403       .  A
C669        H674   1.082       .  S
C670        C671   1.417       .  A
C671        C672   1.411       .  A
C671        C675   1.519       .  S
C672        H676   1.083       .  S
C673        F686   1.384       .  S
C673        F687   1.384       .  S
C673        F688   1.381       .  S
C675        F683   1.385       .  S
C675        F684   1.382       .  S
C675        F685   1.381       .  S
C689        C690   1.400       .  A
C689        C694   1.406       .  A
C689        H699   1.083       .  S
C690        C695   1.480       .  S
C690        C691   1.416       .  A
C691        C692   1.407       .  A
C691        C696   1.524       .  S
C692        C693   1.405       .  A
C692        H697   1.081       .  S
C693        C694   1.419       .  A
C694        C698   1.520       .  S
C695        C700   1.410       .  A
C695        C704   1.399       .  A
C696        F712   1.381       .  S
C696        F713   1.380       .  S
C696        F714   1.384       .  S
C698        F709   1.382       .  S
C698        F710   1.384       .  S
C698        F711   1.380       .  S
C700        C701   1.407       .  A
C700        C705   1.521       .  S
C701        C702   1.413       .  A
C701        H706   1.082       .  S
C702        C703   1.425       .  A
C703        C704   1.406       .  A
C703        C707   1.520       .  S
C704        H708   1.083       .  S
C705        F718   1.385       .  S
C705        F719   1.383       .  S
C705        F720   1.380       .  S
C707        F715   1.385       .  S
C707        F716   1.384       .  S
C707        F717   1.382       .  S
C721        C722   1.402       .  A
C721        C726   1.406       .  A
C721        H731   1.080       .  S
C722        C727   1.479       .  S
C722        C723   1.414       .  A
C723        C724   1.402       .  A
C723        C728   1.518       .  S
C724        C725   1.404       .  A
C724        H729   1.084       .  S
C725        C726   1.419       .  A
C726        C730   1.520       .  S
C727        C732   1.414       .  A
C727        C736   1.400       .  A
C728        F744   1.382       .  S
C728        F745   1.383       .  S
C728        F746   1.384       .  S
C730        F741   1.383       .  S
C730        F742   1.384       .  S
C730        F743   1.383       .  S
C732        C733   1.407       .  A
C732        C737   1.517       .  S
C733        C734   1.404       .  A
C733        H738   1.083       .  S
C734        C735   1.416       .  A
C735        C736   1.400       .  A
C735        C739   1.515       .  S
C736        H740   1.085       .  S
C737        F750   1.385       .  S
C737        F751   1.382       .  S
C737        F752   1.383       .  S
C739        F747   1.383       .  S
C739        F748   1.381       .  S
C739        F749   1.384       .  S
C753        C754   1.399       .  A
C753        C758   1.408       .  A
C753        H763   1.083       .  S
C754        C759   1.487       .  S
C754        C755   1.414       .  A
C755        C756   1.408       .  A
C755        C760   1.518       .  S
C756        C757   1.407       .  A
C756        H761   1.081       .  S
C757        C758   1.422       .  A
C758        C762   1.518       .  S
C759        C764   1.415       .  A
C759        C768   1.402       .  A
C760        F776   1.382       .  S
C760        F777   1.381       .  S
C760        F778   1.384       .  S
C762        F773   1.385       .  S
C762        F774   1.381       .  S
C762        F775   1.380       .  S
C764        C765   1.404       .  A
C764        C769   1.521       .  S
C765        C766   1.408       .  A
C765        H770   1.083       .  S
C766        C767   1.423       .  A
C767        C768   1.411       .  A
C767        C771   1.519       .  S
C768        H772   1.083       .  S
C769        F782   1.385       .  S
C769        F783   1.382       .  S
C769        F784   1.382       .  S
C771        F779   1.383       .  S
C771        F780   1.384       .  S
C771        F781   1.385       .  S
C785        C786   1.401       .  A
C785        C790   1.402       .  A
C785        H795   1.085       .  S
C786        C791   1.478       .  S
C786        C787   1.416       .  A
C787        C788   1.405       .  A
C787        C792   1.521       .  S
C788        C789   1.402       .  A
C788        H793   1.083       .  S
C789        C790   1.416       .  A
C790        C794   1.516       .  S
C791        C796   1.412       .  A
C791        C800   1.395       .  A
C792        F808   1.382       .  S
C792        F809   1.381       .  S
C792        F810   1.384       .  S
C794        F805   1.381       .  S
C794        F806   1.384       .  S
C794        F807   1.383       .  S
C796        C797   1.407       .  A
C796        C801   1.520       .  S
C797        C798   1.411       .  A
C797        H802   1.082       .  S
C798        C799   1.430       .  A
C799        C800   1.401       .  A
C799        C803   1.524       .  S
C800        H804   1.083       .  S
C801        F814   1.385       .  S
C801        F815   1.382       .  S
C801        F816   1.381       .  S
C803        F811   1.384       .  S
C803        F812   1.384       .  S
C803        F813   1.383       .  S
C817        C818   1.403       .  A
C817        C822   1.409       .  A
C817        H827   1.083       .  S
C818        C823   1.491       .  S
C818        C819   1.419       .  A
C819        C820   1.410       .  A
C819        C824   1.520       .  S
C820        C821   1.403       .  A
C820        H825   1.083       .  S
C821        C822   1.415       .  A
C822        C826   1.517       .  S
C823        C828   1.415       .  A
C823        C832   1.402       .  A
C824        F840   1.382       .  S
C824        F841   1.385       .  S
C824        F842   1.382       .  S
C826        F837   1.384       .  S
C826        F838   1.385       .  S
C826        F839   1.382       .  S
C828        C829   1.407       .  A
C828        C833   1.519       .  S
C829        C830   1.407       .  A
C829        H834   1.082       .  S
C830        C831   1.423       .  A
C831        C832   1.411       .  A
C831        C835   1.520       .  S
C832        H836   1.083       .  S
C833        F846   1.384       .  S
C833        F847   1.382       .  S
C833        F848   1.381       .  S
C835        F843   1.385       .  S
C835        F844   1.381       .  S
C835        F845   1.379       .  S
C849        C850   1.402       .  A
C849        C854   1.410       .  A
C849        H859   1.083       .  S
C850        C855   1.491       .  S
C850        C851   1.418       .  A
C851        C852   1.409       .  A
C851        C856   1.519       .  S
C852        C853   1.402       .  A
C852        H857   1.083       .  S
C853        C854   1.420       .  A
C854        C858   1.518       .  S
C855        C860   1.410       .  A
C855        C864   1.394       .  A
C856        F872   1.382       .  S
C856        F873   1.381       .  S
C856        F874   1.385       .  S
C858        F869   1.385       .  S
C858        F870   1.382       .  S
C858        F871   1.383       .  S
C860        C861   1.410       .  A
C860        C865   1.519       .  S
C861        C862   1.414       .  A
C861        H866   1.080       .  S
C862        C863   1.453       .  A
C863        C864   1.415       .  A
C863        C867   1.596       .  S
C864        H868   1.084       .  S
C865        F878   1.384       .  S
C865        F879   1.382       .  S
C865        F880   1.382       .  S
C867        F875   2.442       .  S
C867        F876   1.416       .  S
C867        F877   1.415       .  S
C881        C882   1.824       .  A
C881        C886   1.827       .  A
C881        H891   1.081       .  S
C882        C887   1.463       .  S
C882        C883   1.846       .  A
C883        C884   1.842       .  A
C883        C888   1.494       .  S
C884        C885   1.850       .  A
C884        H889   1.082       .  S
C885        C886   1.850       .  A
C886        C890   1.498       .  S
C887        C892   1.415       .  A
C887        C896   1.399       .  A
C888        F904   1.382       .  S
C888        F905   1.381       .  S
C888        F906   1.382       .  S
C890        F901   1.382       .  S
C890        F902   1.381       .  S
C890        F903   1.381       .  S
C892        C893   1.401       .  A
C892        C897   1.520       .  S
C893        C894   1.398       .  A
C893        H898   1.083       .  S
C894        C895   1.415       .  A
C895        C896   1.404       .  A
C895        C899   1.518       .  S
C896        H900   1.082       .  S
C897        F910   1.385       .  S
C897        F911   1.381       .  S
C897        F912   1.383       .  S
C899        F907   1.382       .  S
C899        F908   1.383       .  S
C899        F909   1.385       .  S
