geometry optimzed in LAMMPS
_audit_creation_date              2020-11-30 
_audit_creation_method            'lammps2cif' 
_symmetry_space_group_name_H-M    'P1' 
_symmetry_Int_Tables_number       1 
_symmetry_cell_setting            triclinic 
loop_ 
_symmetry_equiv_pos_as_xyz 
  x,y,z 
_cell_length_a                    34.0319770537834 
_cell_length_b                    31.43321355543842 
_cell_length_c                    52.00389890557391 
_cell_angle_alpha                 90.81055323811428 
_cell_angle_beta                  89.63758258557463 
_cell_angle_gamma                 89.47784839220022 
loop_ 
_atom_site_label 
_atom_site_type_symbol 
_atom_site_fract_x 
_atom_site_fract_y 
_atom_site_fract_z 
_atom_site_charge 
C1          C  0.47373172  0.99976133  0.50097356     0.01450
C2          C  0.01403331  0.50067382  0.49947886     0.01450
C3          C  0.48312596  0.24381367  0.49709608     0.01450
C4          C  0.02272728  0.25474324  0.49972655     0.01450
C5          C  0.34203495  0.46386291  0.43752833     0.43350
N6          N  0.28800273  0.45483517  0.41740304     0.02240
C7          C  0.17515869  0.27459902  0.41577025    -0.05640
H8          H  0.33720438  0.25061792  0.40279738     0.07730
C9          C  0.32294726  0.33003185  0.32049152    -0.05990
Co10       Co  0.25055740  0.37409562  0.43238233     0.74180
N11         N  0.29610429  0.30109772  0.41138210    -0.25170
Co12       Co  0.25219693  0.30048659  0.38291752     0.74070
C13         C  0.33933009  0.28765957  0.32652585     0.43450
N14         N  0.28843034  0.43567505  0.34180306     0.01850
N15         N  0.29523518  0.30629761  0.35466251     0.01960
N16         N  0.18174267  0.32252496  0.44777759    -0.46020
H17         H  0.33309839  0.40466130  0.46170758     0.07710
N18         N  0.29502141  0.33046410  0.42952544     0.02240
N19         N  0.21085504  0.30070112  0.35344871     0.01980
C20         C  0.17562161  0.27445417  0.32253414     0.43590
N21         N  0.28567404  0.46167127  0.36182383    -0.24630
C22         C  0.17623787  0.41731085  0.45151237    -0.05550
N23         N  0.31876592  0.48045000  0.41916558    -0.45730
N24         N  0.19155447  0.26643379  0.34571715    -0.45960
C25         C  0.15077422  0.45242596  0.44451084     0.43360
N26         N  0.21035160  0.32570049  0.43092243     0.02230
N27         N  0.20123714  0.45729717  0.36061655    -0.24650
N28         N  0.29042575  0.42271225  0.43327404    -0.25140
N29         N  0.20314066  0.43061488  0.34069854     0.01870
H30         H  0.17306782  0.51829991  0.36631257     0.07760
H31         H  0.18339543  0.33630742  0.29925549     0.07790
N32         N  0.20800580  0.29799522  0.41179629    -0.25190
N33         N  0.29493197  0.33807448  0.33826469    -0.24800
N34         N  0.20075215  0.44899710  0.41875495     0.02230
C35         C  0.34849395  0.29619684  0.43773029     0.43630
C36         C  0.31085836  0.49348522  0.35919639    -0.06050
N37         N  0.20983430  0.33164459  0.33644313    -0.24800
H38         H  0.32743827  0.34846768  0.30332836     0.07780
N39         N  0.32506718  0.32864419  0.44523286    -0.46020
H40         H  0.31398327  0.51928468  0.37288272     0.07770
C41         C  0.16296688  0.48085072  0.32881421     0.43470
C42         C  0.32297226  0.42640347  0.44726236    -0.05550
Co43       Co  0.24335534  0.45639661  0.38988159     0.73820
N44         N  0.31332375  0.45030001  0.32429810    -0.45740
C45         C  0.15787512  0.29126857  0.44024859     0.43730
N46         N  0.16783206  0.47086671  0.42371976    -0.45730
Co47       Co  0.24901530  0.38408398  0.33869673     0.73890
C48         C  0.18754050  0.31846105  0.31660007    -0.06060
C49         C  0.32882642  0.27733063  0.41490080    -0.05620
N50         N  0.20564971  0.41757711  0.43480390    -0.25150
N51         N  0.32074054  0.27592916  0.34823165    -0.45910
H52         H  0.16461065  0.24958793  0.40318804     0.07740
C53         C  0.17647031  0.48931117  0.35502687    -0.06030
Cl54       Cl  0.24815640  0.37866384  0.38554853    -0.49040
C55         C  0.32877447  0.48700263  0.33400169     0.43500
H56         H  0.17314586  0.39359716  0.46597793     0.07710
N57         N  0.18166572  0.44436214  0.32112356    -0.45750
C58         C  0.34994160  0.03821838  0.56750499     0.43350
N59         N  0.29389501  0.04671929  0.58528694     0.02240
C60         C  0.17634608  0.22446408  0.58041590    -0.05640
H61         H  0.33952816  0.25063737  0.59360582     0.07730
C62         C  0.30844174  0.18229783  0.68226327    -0.05990
Co63       Co  0.25403604  0.12464931  0.56640060     0.74180
N64         N  0.29767826  0.19995493  0.58651784    -0.25170
Co65       Co  0.25091444  0.20225996  0.61411775     0.74070
C66         C  0.32230163  0.22544977  0.67641326     0.43450
N67         N  0.28588362  0.07233008  0.66047300     0.01850
N68         N  0.28983244  0.19997766  0.64434519     0.01960
N69         N  0.18233565  0.17277081  0.55032125    -0.46020
H70         H  0.34070252  0.09427387  0.54063183     0.07710
N71         N  0.29700854  0.16981728  0.56869434     0.02240
N72         N  0.20596213  0.20308058  0.64208624     0.01980
C73         C  0.16396413  0.22632585  0.67076074     0.43590
N74         N  0.28619040  0.04285639  0.64209706    -0.24630
C75         C  0.18178968  0.07791103  0.54689102    -0.05550
N76         N  0.32582146  0.02224946  0.58554652    -0.45730
N77         N  0.18412282  0.23655098  0.64913884    -0.45960
C78         C  0.15721460  0.04252059  0.55440087     0.43360
N79         N  0.21202715  0.17200569  0.56631768     0.02230
N80         N  0.20259049  0.04595541  0.63751498    -0.24650
N81         N  0.29606895  0.07719697  0.56821578    -0.25140
N82         N  0.20129168  0.07344827  0.65694450     0.01870
H83         H  0.17811777  0.98419008  0.63091295     0.07760
H84         H  0.16824309  0.16218216  0.69209102     0.07790
N85         N  0.20952491  0.20166708  0.58437299    -0.25190
N86         N  0.28732393  0.16990227  0.66181081    -0.24800
N87         N  0.20639810  0.04893486  0.58054960     0.02230
C88         C  0.34946681  0.20407044  0.55903021     0.43630
C89         C  0.30842116  0.00999224  0.64979738    -0.06050
N90         N  0.20261644  0.17134670  0.65830837    -0.24800
H91         H  0.30925009  0.16578233  0.70033829     0.07780
N92         N  0.32660972  0.17131528  0.55236039    -0.46020
H93         H  0.31086222  0.97952204  0.63995796     0.07770
C94         C  0.16397941  0.02158360  0.66790731     0.43470
C95         C  0.33015765  0.07364338  0.55555643    -0.05550
Co96       Co  0.24717203  0.04541939  0.61104336     0.73820
N97         N  0.30595353  0.06040126  0.68098614    -0.45740
C98         C  0.15810904  0.20455221  0.55759314     0.43730
N99         N  0.17424488  0.02607037  0.57583831    -0.45730
Co100      Co  0.24421976  0.12170608  0.65969295     0.73890
C101        C  0.17561965  0.18205725  0.67611139    -0.06060
C102        C  0.33045887  0.22339852  0.58225606    -0.05620
N103        N  0.21068521  0.07959475  0.56391998    -0.25150
N104        N  0.30974982  0.23341620  0.65244305    -0.45910
H105        H  0.16579576  0.25036221  0.59256213     0.07740
C106        C  0.17906807  0.01330171  0.64222655    -0.06030
Cl107      Cl  0.24913815  0.12365864  0.61314249    -0.49040
C108        C  0.32204036  0.02177344  0.67551530     0.43500
H109        H  0.17790203  0.10048755  0.53175739     0.07710
N110        N  0.17893300  0.05936443  0.67595871    -0.45750
C111        C  0.25490788  0.98926702  0.99876396     0.01450
C112        C  0.21421044  0.98366149  0.99478826     0.01450
C113        C  0.25651425  0.23868447  0.99741800     0.01450
C114        C  0.21510902  0.24026027  0.99943453     0.01450
C115        C  0.39613472  0.05325027  0.94629802     0.43350
N116        N  0.44607593  0.06141004  0.92092924     0.02240
C117        C  0.05834114  0.24198638  0.91091668    -0.05640
H118        H  0.39418787  0.25641883  0.89427439     0.07730
C119        C  0.41242011  0.17695611  0.81961590    -0.05990
Co120      Co  0.48532096  0.14371117  0.93272188     0.74180
N121        N  0.43867389  0.21389656  0.90914050    -0.25170
Co122      Co  0.48243540  0.21117604  0.88109508     0.74070
C123        C  0.39690151  0.22026316  0.82476776     0.43450
N124        N  0.44440575  0.07358055  0.84398387     0.01850
N125        N  0.43980365  0.20354793  0.85331113     0.01960
N126        N  0.05605809  0.19746510  0.94452649    -0.46020
H127        H  0.40776433  0.11714224  0.96665915     0.07710
N128        N  0.43926027  0.18797063  0.92880592     0.02240
N129        N  0.02383007  0.20703170  0.85197858     0.01980
C130        C  0.05851859  0.22996944  0.82031485     0.43590
N131        N  0.44681162  0.04868981  0.86419028    -0.24630
C132        C  0.06257311  0.09875165  0.94965032    -0.05550
N133        N  0.41650105  0.03531979  0.92621548    -0.45730
N134        N  0.04315508  0.24033355  0.84350615    -0.45960
C135        C  0.08681117  0.06201065  0.94112174     0.43360
N136        N  0.02581803  0.19186853  0.92912849     0.02230
N137        N  0.03000185  0.05084143  0.86066593    -0.24650
N138        N  0.44551002  0.09537307  0.93601452    -0.25140
N139        N  0.02871591  0.07720856  0.84103989     0.01870
H140        H  0.05395269  0.98745161  0.86419685     0.07760
H141        H  0.05005480  0.16651310  0.79789874     0.07790
N142        N  0.02618912  0.21726076  0.90920136    -0.25190
N143        N  0.43955067  0.17010441  0.83774546    -0.24800
N144        N  0.03343078  0.06609603  0.91860869     0.02230
C145        C  0.38229701  0.21855111  0.93086496     0.43630
C146        C  0.42524315  0.01400587  0.86041500    -0.06050
N147        N  0.02432323  0.17460468  0.83551759    -0.24800
H148        H  0.40724552  0.15598158  0.80338440     0.07780
N149        N  0.40596696  0.18952568  0.94211957    -0.46020
H150        H  0.42503865  0.98649475  0.87267593     0.07770
C151        C  0.06449791  0.02438098  0.82702688     0.43470
C152        C  0.41553620  0.09303264  0.95249860    -0.05550
Co153      Co  0.48931117  0.05612656  0.89145733     0.73820
N154        N  0.42279320  0.05625615  0.82561325    -0.45740
C155        C  0.07789088  0.22870117  0.93463604     0.43730
N156        N  0.06600352  0.04337306  0.92189587    -0.45730
Co157      Co  0.48428108  0.12380646  0.83930370     0.73890
C158        C  0.04648829  0.18560264  0.81519707    -0.06060
C159        C  0.40409577  0.23505852  0.90903354    -0.05620
N160        N  0.53101231  0.09893979  0.93451083    -0.25150
N161        N  0.41539298  0.23393918  0.84611322    -0.45910
H162        H  0.06760397  0.26501698  0.89692427     0.07740
C163        C  0.05192504  0.01670136  0.85357223    -0.06030
Cl164      Cl  0.48561017  0.13358878  0.88599282    -0.49040
C165        C  0.40980382  0.01874228  0.83474825     0.43500
H166        H  0.06705511  0.12258244  0.96403986     0.07710
N167        N  0.04807506  0.06204912  0.82057986    -0.45750
C168        C  0.10817555  0.35689600  0.74606384     0.01450
C169        C  0.11012010  0.40139439  0.74568415     0.01450
C170        C  0.35718673  0.35513403  0.75308569     0.01450
C171        C  0.35933763  0.39920922  0.75542603     0.01450
C172        C  0.11311740  0.14528820  0.25141580     0.01450
C173        C  0.12273280  0.10155202  0.24821136     0.01450
C174        C  0.37362573  0.15101592  0.25287484     0.01450
C175        C  0.37106803  0.10666443  0.25357010     0.01450
C176        C  0.39179843  0.45303311  0.05642953     0.43350
N177        N  0.44101199  0.44954438  0.08219312     0.02240
C178        C  0.06490423  0.27533486  0.08713391    -0.05640
H179        H  0.39790777  0.25447253  0.09936732     0.07730
C180        C  0.41935796  0.32302362  0.18233065    -0.05990
Co181      Co  0.48837563  0.37258773  0.06767738     0.74180
N182        N  0.44275235  0.29945431  0.08826426    -0.25170
Co183      Co  0.48629981  0.30058513  0.11701071     0.74070
C184        C  0.40726731  0.27925536  0.17601759     0.43450
N185        N  0.44062309  0.43251789  0.15940145     0.01850
N186        N  0.44315698  0.30370624  0.14539840     0.01960
N187        N  0.06386482  0.32357636  0.05541340    -0.46020
H188        H  0.41312144  0.39412558  0.03396480     0.07710
N189        N  0.44493997  0.32615862  0.06907682     0.02240
N190        N  0.02710285  0.30265181  0.14667705     0.01980
C191        C  0.05585190  0.27537388  0.17979977     0.43590
N192        N  0.44027527  0.45868856  0.13976264    -0.24630
C193        C  0.06007611  0.42508618  0.05159904    -0.05550
N194        N  0.40826058  0.47177439  0.07753830    -0.45730
N195        N  0.04432416  0.26774784  0.15540679    -0.45960
C196        C  0.08069303  0.46220568  0.06144474     0.43360
N197        N  0.03221713  0.32685535  0.07033628     0.02230
N198        N  0.02486525  0.46048072  0.14040501    -0.24650
N199        N  0.44555124  0.41765742  0.06580177    -0.25140
N200        N  0.02634647  0.43389513  0.15978005     0.01870
H201        H  0.05278907  0.51863587  0.13163290     0.07760
H202        H  0.04143358  0.33635019  0.20362497     0.07790
N203        N  0.03182587  0.29912054  0.08908921    -0.25190
N204        N  0.44226636  0.33504930  0.16265092    -0.24800
N205        N  0.02895036  0.45226841  0.08416726     0.02230
C206        C  0.38908491  0.29508362  0.06309097     0.43630
C207        C  0.41534395  0.49091020  0.14495196    -0.06050
N208        N  0.02588718  0.33394557  0.16399141    -0.24800
H209        H  0.41678215  0.33986714  0.20054874     0.07780
N210        N  0.41406806  0.32415257  0.05375844    -0.46020
H211        H  0.41280896  0.51953447  0.13374732     0.07770
C212        C  0.06822915  0.48397899  0.16927583     0.43470
C213        C  0.41670789  0.41763894  0.04902893    -0.05550
Co214      Co  0.48346002  0.45609084  0.11145957     0.73820
N215        N  0.41805749  0.44681991  0.17861730    -0.45740
C216        C  0.08631036  0.29182936  0.06470900     0.43730
N217        N  0.05940658  0.47823204  0.08145103    -0.45730
Co218      Co  0.48400887  0.38420497  0.16183791     0.73890
C219        C  0.04374496  0.31997554  0.18529888    -0.06060
C220        C  0.40853376  0.27796482  0.08608228    -0.05620
N221        N  0.02962752  0.42045030  0.06739583    -0.25150
N222        N  0.42323668  0.27006806  0.15282724    -0.45910
H223        H  0.07364295  0.25074132  0.10032338     0.07740
C224        C  0.05027377  0.49207251  0.14431108    -0.06030
Cl225      Cl  0.48571844  0.37836347  0.11473301    -0.49040
C226        C  0.40061594  0.48342872  0.17090939     0.43500
H227        H  0.06652752  0.40484451  0.03514861     0.07710
N228        N  0.05127854  0.44735367  0.17767663    -0.45750
C229        C  0.37631547  0.08010457  0.22922307    -0.04450
C230        C  0.41284905  0.07863737  0.21622223    -0.01570
C231        C  0.41990597  0.54855262  0.19629450     0.03420
C232        C  0.39092576  0.51852491  0.18952666    -0.04450
C233        C  0.35397752  0.02061826  0.20178615    -0.01550
C234        C  0.34673762  0.05094713  0.22164562     0.03420
C235        C  0.44529987  0.10187073  0.22707324     0.38070
C236        C  0.32339406  0.49143805  0.19395690     0.38060
C237        C  0.30904425  0.05115957  0.23477671     0.36480
C238        C  0.45791653  0.54687879  0.18366389     0.36480
N239        N  0.27893781  0.05062627  0.24519899    -0.38340
N240        N  0.48782561  0.54515600  0.17303151    -0.38340
N241        N  0.29885765  0.46838400  0.18760456    -0.37780
N242        N  0.47034159  0.11915582  0.23768540    -0.37780
C243        C  0.40007609  0.24445216  0.19468731    -0.04450
C244        C  0.37187088  0.21291791  0.18937653    -0.01570
C245        C  0.36545900  0.17913407  0.20668497     0.03420
C246        C  0.38760968  0.17626188  0.22972136    -0.04450
C247        C  0.41873954  0.20583552  0.23334753    -0.01550
C248        C  0.42445963  0.23966171  0.21628838     0.03420
C249        C  0.34818654  0.21610718  0.16638032     0.38070
C250        C  0.44599074  0.20224713  0.25459582     0.38060
C251        C  0.45616360  0.26922679  0.22128171     0.36480
C252        C  0.33425356  0.14952033  0.20097920     0.36480
N253        N  0.48129434  0.29249922  0.22608326    -0.38340
N254        N  0.30867102  0.12719157  0.19553470    -0.38340
N255        N  0.46943996  0.20094976  0.27060720    -0.37780
N256        N  0.32916816  0.21832135  0.14808269    -0.37780
C257        C  0.12249599  0.07182978  0.22375935    -0.04450
C258        C  0.11958897  0.08457961  0.19782233    -0.01570
C259        C  0.10296090  0.05630127  0.17906560     0.03420
C260        C  0.09321252  0.51355396  0.18571556    -0.04450
C261        C  0.10983212  0.49839760  0.20863294    -0.01550
C262        C  0.12802579  0.02683158  0.22596539     0.03420
C263        C  0.13471225  0.12507699  0.18967341     0.38070
C264        C  0.11211052  0.45308988  0.21347849     0.38060
C265        C  0.16059270  0.00962023  0.24051466     0.36480
C266        C  0.09620751  0.07249898  0.15355008     0.36480
N267        N  0.18707305  0.99439368  0.25092971    -0.38340
N268        N  0.09152633  0.08703643  0.13345359    -0.38340
N269        N  0.11437737  0.41702699  0.21741555    -0.37780
N270        N  0.14591131  0.15679240  0.18148237    -0.37780
C271        C  0.06477950  0.24056908  0.19897093    -0.04450
C272        C  0.05390552  0.19702915  0.19486628    -0.01570
C273        C  0.06430477  0.16510284  0.21312798     0.03420
C274        C  0.08708498  0.17573542  0.23486467    -0.04450
C275        C  0.08363940  0.21955667  0.24204038    -0.01550
C276        C  0.07996571  0.25102921  0.22337970     0.03420
C277        C  0.03094941  0.18473542  0.17265726     0.38070
C278        C  0.07283907  0.23201801  0.26811216     0.38060
C279        C  0.09190819  0.29374146  0.23030046     0.36480
C280        C  0.04695989  0.12360767  0.21141836     0.36480
N281        N  0.10195893  0.32741661  0.23646271    -0.38340
N282        N  0.03376304  0.08991673  0.20999084    -0.38340
N283        N  0.06286385  0.24303024  0.28848222    -0.37780
N284        N  0.51245551  0.17465313  0.15502881    -0.37780
C285        C  0.07640415  0.99089212  0.80754929    -0.04450
C286        C  0.04786767  0.46721948  0.79403480    -0.01570
C287        C  0.05914964  0.43316844  0.77726676     0.03420
C288        C  0.09871830  0.42863535  0.76921217    -0.04450
C289        C  0.12676811  0.45617012  0.78060365    -0.01550
C290        C  0.11619057  0.98458009  0.80093033     0.03420
C291        C  0.00819999  0.48373800  0.79307512     0.38070
C292        C  0.16637763  0.45651006  0.77063687     0.38060
C293        C  0.14603434  0.00939143  0.81389058     0.36480
C294        C  0.02966399  0.40729878  0.76492683     0.36480
N295        N  0.16983355  0.02913356  0.82429903    -0.38340
N296        N  0.00739709  0.38668076  0.75376443    -0.38340
N297        N  0.19753755  0.45732984  0.76181971    -0.37780
N298        N  0.47751610  0.49928404  0.79090733    -0.37780
C299        C  0.08871878  0.33225111  0.76776894    -0.04450
C300        C  0.10370682  0.33160361  0.79325664    -0.01570
C301        C  0.09294428  0.29873439  0.81031154     0.03420
C302        C  0.06982057  0.26407630  0.80177448    -0.04450
C303        C  0.05463215  0.26500618  0.77656969    -0.01550
C304        C  0.06154556  0.30011999  0.76062607     0.03420
C305        C  0.13444244  0.36032417  0.80135630     0.38070
C306        C  0.03354761  0.22913104  0.76591593     0.38060
C307        C  0.04220423  0.30138726  0.73581568     0.36480
C308        C  0.10847878  0.29896606  0.83627980     0.36480
N309        N  0.02664367  0.30157997  0.71610001    -0.38340
N310        N  0.12084507  0.29925886  0.85696358    -0.38340
N311        N  0.01805588  0.20042658  0.75637524    -0.37780
N312        N  0.15977686  0.38136976  0.80882544    -0.37780
C313        C  0.39481546  0.98429901  0.81796685    -0.04450
C314        C  0.41499579  0.44504503  0.81471435    -0.01570
C315        C  0.40435893  0.41656555  0.79460452     0.03420
C316        C  0.36966514  0.42402532  0.78000632    -0.04450
C317        C  0.34642474  0.46050625  0.78724306    -0.01550
C318        C  0.36070339  0.99185465  0.80409068     0.03420
C319        C  0.44860621  0.43509762  0.83073825     0.38070
C320        C  0.30601320  0.46588426  0.77995977     0.38060
C321        C  0.33932590  0.03190233  0.80776824     0.36480
C322        C  0.43053095  0.38098766  0.78942791     0.36480
N323        N  0.32242838  0.06377718  0.81051630    -0.38340
N324        N  0.45237545  0.35272619  0.78727900    -0.38340
N325        N  0.27335638  0.47410299  0.77648404    -0.37780
N326        N  0.47549463  0.42698245  0.84334314    -0.37780
C327        C  0.36972775  0.32378172  0.77347386    -0.04450
C328        C  0.39538652  0.28986089  0.76588312    -0.01570
C329        C  0.39932993  0.25326836  0.78086307     0.03420
C330        C  0.38291094  0.25224545  0.80581335    -0.04450
C331        C  0.35904752  0.28692024  0.81431320    -0.01550
C332        C  0.35154989  0.32190010  0.79806142     0.03420
C333        C  0.42043009  0.29321042  0.74334003     0.38070
C334        C  0.34086424  0.28578502  0.83961592     0.38060
C335        C  0.32401432  0.35466306  0.80657130     0.36480
C336        C  0.42000852  0.21677076  0.76983588     0.36480
N337        N  0.30160779  0.38012511  0.81377734    -0.38340
N338        N  0.43540176  0.18760327  0.76024525    -0.38340
N339        N  0.32632058  0.28478136  0.85977347    -0.37780
N340        N  0.44152929  0.29438814  0.72584895    -0.37780
C341        C  0.12448627  0.27671894  0.05279052    -0.04450
C342        C  0.13132817  0.23326287  0.04810539    -0.01570
C343        C  0.16461070  0.21981031  0.03358704     0.03420
C344        C  0.19240053  0.24910303  0.02412093    -0.04450
C345        C  0.18938524  0.29105598  0.03331169    -0.01550
C346        C  0.15389335  0.30545032  0.04493699     0.03420
C347        C  0.10272909  0.20223204  0.05650013     0.38070
C348        C  0.22155176  0.31969554  0.02812404     0.38060
C349        C  0.14446680  0.34943085  0.04329879     0.36480
C350        C  0.17330627  0.17542993  0.03360370     0.36480
N351        N  0.13575914  0.38399766  0.03923078    -0.38340
N352        N  0.17633300  0.13975043  0.03779384    -0.38340
N353        N  0.24820032  0.34047017  0.02278211    -0.37780
N354        N  0.08007062  0.17735522  0.06311559    -0.37780
C355        C  0.28940376  0.24469846  0.01865023    -0.04450
C356        C  0.28540436  0.25155684  0.04592511    -0.01570
C357        C  0.31737934  0.26903694  0.06062470     0.03420
C358        C  0.35345117  0.27977866  0.04859859    -0.04450
C359        C  0.35671888  0.27216575  0.02201836    -0.01550
C360        C  0.32943234  0.24565798  0.01013969     0.03420
C361        C  0.25367976  0.23309377  0.06036608     0.38070
C362        C  0.39210873  0.28245966  0.00772720     0.38060
C363        C  0.34802441  0.20624887  0.00178377     0.36480
C364        C  0.31233469  0.27825256  0.08781829     0.36480
N365        N  0.36478856  0.17517100  0.99632807    -0.38340
N366        N  0.30805386  0.28633883  0.10943477    -0.38340
N367        N  0.42014172  0.29057288  0.99614290    -0.37780
N368        N  0.23003937  0.21817877  0.07346184    -0.37780
C369        C  0.18728530  0.24099285  0.97578460    -0.04450
C370        C  0.17832779  0.20380069  0.96079129    -0.01570
C371        C  0.14543824  0.20272163  0.94417674     0.03420
C372        C  0.11856849  0.23659078  0.94371061    -0.04450
C373        C  0.12836370  0.27482489  0.95587744    -0.01550
C374        C  0.16305767  0.27779567  0.97080093     0.03420
C375        C  0.20034271  0.16477754  0.96167404     0.38070
C376        C  0.10163950  0.31084076  0.95359473     0.38060
C377        C  0.17254537  0.31982422  0.98015594     0.36480
C378        C  0.13863308  0.16616331  0.92732368     0.36480
N379        N  0.17746410  0.35485498  0.98637119    -0.38340
N380        N  0.13354366  0.13748305  0.91358992    -0.38340
N381        N  0.07994952  0.33912824  0.95154383    -0.37780
N382        N  0.21369747  0.13113076  0.95864163    -0.37780
C383        C  0.33989890  0.22425206  0.93755839    -0.04450
C384        C  0.31819058  0.18833925  0.94439615    -0.01570
C385        C  0.28859226  0.19244774  0.96316712     0.03420
C386        C  0.27418282  0.23291214  0.97073533    -0.04450
C387        C  0.28827296  0.26850377  0.95729354    -0.01550
C388        C  0.32282261  0.26475874  0.94198818     0.03420
C389        C  0.32760042  0.14721855  0.93307655     0.38070
C390        C  0.26869621  0.30897830  0.96037952     0.38060
C391        C  0.34177230  0.30237187  0.93228872     0.36480
C392        C  0.28212347  0.15736154  0.97992165     0.36480
N393        N  0.35689666  0.33243316  0.92449380    -0.38340
N394        N  0.27639391  0.13125976  0.99469599    -0.38340
N395        N  0.25238701  0.34127437  0.96184280    -0.37780
N396        N  0.33420330  0.11497021  0.92293616    -0.37780
C397        C  0.11730707  0.47914332  0.04974025    -0.04450
C398        C  0.15431199  0.46471192  0.05853410    -0.01570
C399        C  0.18631633  0.45749449  0.04074914     0.03420
C400        C  0.18192935  0.46702351  0.01406453    -0.04450
C401        C  0.14181367  0.47260329  0.00674192    -0.01550
C402        C  0.11411079  0.48970843  0.02393422     0.03420
C403        C  0.15740646  0.45105061  0.08501276     0.38070
C404        C  0.12506995  0.94507098  0.98731205     0.38060
C405        C  0.07762347  0.50742534  0.01422582     0.36480
C406        C  0.21651083  0.42831298  0.04911811     0.36480
N407        N  0.04863613  0.02179845  0.00653316    -0.38340
N408        N  0.23958801  0.40567627  0.05798358    -0.38340
N409        N  0.10964866  0.92314416  0.97251986    -0.37780
N410        N  0.15974372  0.43973410  0.10603364    -0.37780
C411        C  0.27906697  0.46662589  0.01874421    -0.04450
C412        C  0.28405401  0.48378173  0.04422846    -0.01570
C413        C  0.32007606  0.47779332  0.05744426     0.03420
C414        C  0.35300120  0.46092300  0.04408338    -0.04450
C415        C  0.34792568  0.44616451  0.01853217    -0.01550
C416        C  0.31025646  0.44174993  0.00832186     0.03420
C417        C  0.25401109  0.51044252  0.05643010     0.38070
C418        C  0.38136031  0.44150223  0.00107273     0.38060
C419        C  0.30672114  0.42037793  0.98357846     0.36480
C420        C  0.32370009  0.49155212  0.08403807     0.36480
N421        N  0.30698817  0.40421479  0.96347730    -0.38340
N422        N  0.32640001  0.50254471  0.10528463    -0.38340
N423        N  0.40769110  0.43824981  0.98695935    -0.37780
N424        N  0.23077906  0.53161781  0.06692511    -0.37780
C425        C  0.12671494  0.04675430  0.95056292    -0.04450
C426        C  0.14483001  0.00942650  0.93974164    -0.01570
C427        C  0.17671572  0.98931492  0.95233559     0.03420
C428        C  0.19486589  0.00921749  0.97371110    -0.04450
C429        C  0.18174295  0.04993546  0.98112279    -0.01550
C430        C  0.14666918  0.06743800  0.97121405     0.03420
C431        C  0.12946158  0.48915579  0.91672930     0.38070
C432        C  0.20187051  0.06961017  0.00239240     0.38060
C433        C  0.13092742  0.10502245  0.98402093     0.36480
C434        C  0.18507702  0.44485627  0.94635643     0.36480
N435        N  0.11908943  0.13495643  0.99484444    -0.38340
N436        N  0.19076978  0.40936000  0.94126254    -0.38340
N437        N  0.22077232  0.08067578  0.01948643    -0.37780
N438        N  0.11773379  0.47256508  0.89834628    -0.37780
C439        C  0.35816870  0.03866572  0.95819737    -0.04450
C440        C  0.34999672  0.04834710  0.98415831    -0.01570
C441        C  0.31235042  0.04151572  0.99481801     0.03420
C442        C  0.28341254  0.01617099  0.98178662    -0.04450
C443        C  0.29244409  0.00644110  0.95524145    -0.01550
C444        C  0.32853886  0.01921588  0.94358626     0.03420
C445        C  0.38136426  0.06270391  0.00098840     0.38070
C446        C  0.26817914  0.98056768  0.93891365     0.38060
C447        C  0.33551643  0.01138385  0.91627650     0.36480
C448        C  0.30537269  0.06114763  0.01982755     0.36480
N449        N  0.34072194  0.00511792  0.89452861    -0.38340
N450        N  0.30268972  0.07940057  0.03928015    -0.38340
N451        N  0.25459066  0.96052115  0.92247046    -0.37780
N452        N  0.40612141  0.07379006  0.01462035    -0.37780
C453        C  0.14950485  0.98846632  0.68565324    -0.04450
C454        C  0.17006272  0.44959443  0.68899751    -0.01570
C455        C  0.15851480  0.42109843  0.70846844     0.03420
C456        C  0.12275215  0.42795115  0.72249900    -0.04450
C457        C  0.09987693  0.46467542  0.71585883    -0.01550
C458        C  0.11460661  0.99581428  0.69925600     0.03420
C459        C  0.20437543  0.43935544  0.67320316     0.38070
C460        C  0.05964881  0.47069125  0.72415311     0.38060
C461        C  0.09279646  0.03522035  0.69532607     0.36480
C462        C  0.18433575  0.38530926  0.71311331     0.36480
N463        N  0.07553236  0.06661224  0.69226363    -0.38340
N464        N  0.20536488  0.35632464  0.71464631    -0.38340
N465        N  0.02727356  0.47875866  0.72916263    -0.37780
N466        N  0.23175422  0.43085368  0.66077455    -0.37780
C467        C  0.14815832  0.25954057  0.68965823    -0.04450
C468        C  0.15473789  0.25608839  0.71645411    -0.01570
C469        C  0.14766103  0.29106446  0.73309977     0.03420
C470        C  0.12454326  0.32647727  0.72526148    -0.04450
C471        C  0.11397055  0.32802329  0.69889475    -0.01550
C472        C  0.12905914  0.29712900  0.68104416     0.03420
C473        C  0.16758007  0.21675487  0.72809847     0.38070
C474        C  0.08655682  0.35998661  0.68993517     0.38060
C475        C  0.12477578  0.30470888  0.65380669     0.36480
C476        C  0.16597289  0.29028161  0.75823614     0.36480
N477        N  0.12204834  0.31228994  0.63218526    -0.38340
N478        N  0.18141189  0.28773311  0.77792139    -0.38340
N479        N  0.06432998  0.38489196  0.68241698    -0.37780
N480        N  0.17643120  0.18595165  0.73864910    -0.37780
C481        C  0.35030864  0.42742295  0.73274271    -0.04450
C482        C  0.38003187  0.45344754  0.72222267    -0.01570
C483        C  0.37145569  0.48206011  0.70223291     0.03420
C484        C  0.33212600  0.99038429  0.69568852    -0.04450
C485        C  0.30206549  0.96891492  0.70885281    -0.01550
C486        C  0.31123952  0.43420317  0.72476875     0.03420
C487        C  0.41935067  0.45148447  0.73233574     0.38070
C488        C  0.26330373  0.98801497  0.71013589     0.38580
C489        C  0.28019891  0.41024509  0.73659599     0.36480
C490        C  0.40283944  0.50448086  0.68938549     0.36480
N491        N  0.25653097  0.39229551  0.74804131    -0.38340
N492        N  0.42794217  0.52219333  0.67906199    -0.38340
N493        N  0.23339911  0.00545688  0.71240837    -0.37780
N494        N  0.45059808  0.45034289  0.74077450    -0.37780
C495        C  0.34068507  0.33189291  0.72965705    -0.04450
C496        C  0.31088921  0.30148068  0.73419364    -0.01570
C497        C  0.30635990  0.26586375  0.71778804     0.03420
C498        C  0.32886889  0.26158839  0.69497300    -0.04450
C499        C  0.35462591  0.29484359  0.68842600    -0.01550
C500        C  0.36104864  0.32944895  0.70569074     0.03420
C501        C  0.28592533  0.30493332  0.75685319     0.38070
C502        C  0.37670502  0.29211400  0.66446766     0.38060
C503        C  0.39200861  0.35889814  0.69942321     0.36480
C504        C  0.27910733  0.23315738  0.72534738     0.36480
N505        N  0.41771182  0.38029547  0.69310447    -0.38340
N506        N  0.25820606  0.20674088  0.73213387    -0.38340
N507        N  0.39437020  0.29020183  0.64539883    -0.37780
N508        N  0.26543422  0.30659228  0.77467442    -0.37780
C509        C  0.13109246  0.07717113  0.27272437    -0.04450
C510        C  0.10232249  0.04906452  0.28256561    -0.01570
C511        C  0.11240246  0.51794229  0.30097894     0.03420
C512        C  0.15103428  0.51520266  0.31046526    -0.04450
C513        C  0.17896898  0.04497629  0.30189397    -0.01550
C514        C  0.16939137  0.07527172  0.28295172     0.03420
C515        C  0.06269899  0.05069808  0.27260293     0.38070
C516        C  0.21880746  0.04121904  0.31069909     0.38060
C517        C  0.20003286  0.10012530  0.27118471     0.36480
C518        C  0.08340385  0.48757203  0.30937492     0.36480
N519        N  0.22378734  0.11988486  0.26094172    -0.38340
N520        N  0.06029829  0.46315220  0.31594388    -0.38340
N521        N  0.25046916  0.03654583  0.31790943    -0.37780
N522        N  0.03102224  0.05200782  0.26472712    -0.37780
C523        C  0.16143223  0.23907321  0.30485460    -0.04450
C524        C  0.17124183  0.23760716  0.27833479    -0.01570
C525        C  0.16295289  0.20116730  0.26317005     0.03420
C526        C  0.13599910  0.17029380  0.27185186    -0.04450
C527        C  0.12447820  0.17230120  0.29813753    -0.01550
C528        C  0.13955598  0.20451702  0.31481240     0.03420
C529        C  0.18529706  0.27476623  0.26512581     0.38070
C530        C  0.09335265  0.14534577  0.30749500     0.38060
C531        C  0.12909326  0.20392345  0.34187224     0.36480
C532        C  0.17924955  0.19815088  0.23738291     0.36480
N533        N  0.12073910  0.20282485  0.36345224    -0.38340
N534        N  0.19372040  0.19710856  0.21721088    -0.38340
N535        N  0.06809229  0.12486627  0.31548579    -0.37780
N536        N  0.19454493  0.30391326  0.25322447    -0.37780
C537        C  0.36526395  0.08000093  0.27787177    -0.04450
C538        C  0.38626807  0.04036703  0.28054336    -0.01570
C539        C  0.37358457  0.50959368  0.29825268     0.03420
C540        C  0.34646159  0.52079385  0.31762297    -0.04450
C541        C  0.33358413  0.06373926  0.31913348    -0.01550
C542        C  0.33706777  0.08984691  0.29743632     0.03420
C543        C  0.42126614  0.02969318  0.26576025     0.38070
C544        C  0.31534286  0.08180645  0.34217057     0.38060
C545        C  0.30736650  0.12263583  0.29510910     0.36480
C546        C  0.38954493  0.46654593  0.29698663     0.36480
N547        N  0.28229060  0.14772849  0.29556843    -0.38340
N548        N  0.40203459  0.43219724  0.29580566    -0.38340
N549        N  0.30105793  0.09757872  0.36022823    -0.37780
N550        N  0.44939820  0.01852572  0.25491201    -0.37780
C551        C  0.36178075  0.18112782  0.27447326    -0.04450
C552        C  0.33116687  0.21090538  0.26974013    -0.01570
C553        C  0.32536212  0.24662001  0.28588131     0.03420
C554        C  0.35006385  0.25389995  0.30713609    -0.04450
C555        C  0.38041116  0.22420047  0.31212839    -0.01550
C556        C  0.38490337  0.18679050  0.29676774     0.03420
C557        C  0.30283990  0.20317033  0.24951951     0.38070
C558        C  0.40974637  0.23458123  0.33116177     0.38060
C559        C  0.41387084  0.15488152  0.30362779     0.36480
C560        C  0.29367315  0.27602322  0.28031406     0.36480
N561        N  0.43699229  0.12946340  0.30921184    -0.38340
N562        N  0.26923293  0.30058205  0.27598873    -0.38340
N563        N  0.43437356  0.24365909  0.34539338    -0.37780
N564        N  0.27883531  0.19814173  0.23416203    -0.37780
C565        C  0.04907736  0.23067877  0.51757732    -0.04450
C566        C  0.07862739  0.20472005  0.50607478    -0.01570
C567        C  0.11460139  0.19814297  0.51867165     0.03420
C568        C  0.11968163  0.21210863  0.54453624    -0.04450
C569        C  0.08764929  0.23197856  0.55737027    -0.01550
C570        C  0.05424385  0.24478090  0.54339488     0.03420
C571        C  0.07526878  0.19131340  0.47935671     0.38070
C572        C  0.08752864  0.23712265  0.58506139     0.38060
C573        C  0.02676704  0.27482289  0.55535048     0.36480
C574        C  0.14726461  0.18046583  0.50372646     0.36480
N575        N  0.00575553  0.29891194  0.56551635    -0.38340
N576        N  0.17319700  0.16695233  0.49153609    -0.38340
N577        N  0.08627350  0.23983391  0.60725493    -0.37780
N578        N  0.07446743  0.18132887  0.45787745    -0.37780
C579        C  0.45837230  0.21297210  0.51411524    -0.04450
C580        C  0.42230847  0.19831545  0.50360075    -0.01570
C581        C  0.38665098  0.20313399  0.51736240     0.03420
C582        C  0.38651631  0.21265590  0.54402740    -0.04450
C583        C  0.42322425  0.21793104  0.55606765    -0.01550
C584        C  0.45883721  0.21379062  0.54154052     0.03420
C585        C  0.42126067  0.17751548  0.47860113     0.38070
C586        C  0.42495058  0.22200996  0.58383233     0.38060
C587        C  0.48943213  0.19017147  0.55434076     0.36480
C588        C  0.34984259  0.19978993  0.50347188     0.36480
N589        N  0.51259864  0.17085439  0.56561783    -0.38340
N590        N  0.32054373  0.19761002  0.49236927    -0.38340
N591        N  0.42673212  0.22477453  0.60600185    -0.37780
N592        N  0.41862279  0.15987921  0.45899009    -0.37780
C593        C  0.11968855  0.28517375  0.45434536    -0.04450
C594        C  0.08335235  0.28186289  0.44157762    -0.01570
C595        C  0.04727265  0.28556748  0.45566877     0.03420
C596        C  0.04699733  0.28651813  0.48312659    -0.04450
C597        C  0.08275381  0.30149449  0.49399528    -0.01550
C598        C  0.11875546  0.29509610  0.48096140     0.03420
C599        C  0.08267201  0.27996069  0.41371108     0.38070
C600        C  0.08401653  0.32112076  0.51931078     0.38060
C601        C  0.15499490  0.29755857  0.49561727     0.36480
C602        C  0.01592845  0.30691761  0.44223229     0.36480
N603        N  0.18366460  0.29935349  0.50742360    -0.38340
N604        N  0.99229944  0.32439364  0.43030457    -0.38340
N605        N  0.08799610  0.33679278  0.53940184    -0.37780
N606        N  0.08172339  0.27895390  0.39147308    -0.37780
C607        C  0.38665283  0.28651776  0.45123575    -0.04450
C608        C  0.39351630  0.30391704  0.47632578    -0.01570
C609        C  0.42861022  0.29491264  0.48953000     0.03420
C610        C  0.45720985  0.26731904  0.47867462    -0.04450
C611        C  0.45133325  0.25103685  0.45344597    -0.01550
C612        C  0.41653595  0.26070935  0.43981797     0.03420
C613        C  0.36322490  0.32772188  0.49030813     0.38070
C614        C  0.47940240  0.22078569  0.44223313     0.38060
C615        C  0.41100891  0.24074375  0.41491696     0.36480
C616        C  0.43249471  0.30856753  0.51621600     0.36480
N617        N  0.40736753  0.22310442  0.39543050    -0.38340
N618        N  0.43461697  0.31908218  0.53756851    -0.38340
N619        N  0.50077415  0.19644229  0.43264177    -0.37780
N620        N  0.33940889  0.34644872  0.50187310    -0.37780
C621        C  0.11786977  0.03207228  0.54251837    -0.04450
C622        C  0.08771130  0.01013205  0.55575018    -0.01570
C623        C  0.05081271  0.00220267  0.54364506     0.03420
C624        C  0.04232900  0.01982124  0.51916588    -0.04450
C625        C  0.07021951  0.04779783  0.50882949    -0.01550
C626        C  0.10887979  0.04798963  0.51784341     0.03420
C627        C  0.09478569  0.49427561  0.58135235     0.38070
C628        C  0.05960045  0.07503029  0.48769723     0.38060
C629        C  0.13944520  0.05891327  0.49958894     0.36480
C630        C  0.02218697  0.47653466  0.55682956     0.36480
N631        N  0.16342273  0.06686343  0.48456377    -0.38340
N632        N  0.99997517  0.45599700  0.56800885    -0.38340
N633        N  0.05076128  0.09706499  0.47105806    -0.37780
N634        N  0.10017324  0.48150160  0.60180858    -0.37780
C635        C  0.38917340  0.02229401  0.56019173    -0.04450
C636        C  0.39287916  0.98151330  0.54932472    -0.01570
C637        C  0.42435606  0.97249835  0.53252589     0.03420
C638        C  0.45167514  0.00453430  0.52601871    -0.04450
C639        C  0.45128096  0.04299912  0.54053158    -0.01550
C640        C  0.42022221  0.05137974  0.55795307     0.03420
C641        C  0.36194313  0.95054585  0.55293348     0.38070
C642        C  0.47816430  0.07684196  0.53455240     0.38060
C643        C  0.41844602  0.09125055  0.57227605     0.36480
C644        C  0.42584847  0.43133561  0.52005831     0.36480
N645        N  0.41680112  0.12274851  0.58400448    -0.38340
N646        N  0.42526414  0.39846125  0.50997165    -0.38340
N647        N  0.99899148  0.10412213  0.52904319    -0.37780
N648        N  0.33724749  0.92590565  0.55564019    -0.37780
C649        C  0.11081454  0.46125229  0.45578647    -0.04450
C650        C  0.09961285  0.44188393  0.47933070    -0.01570
C651        C  0.06086295  0.44499243  0.48796167     0.03420
C652        C  0.03659341  0.47741240  0.47879181    -0.04450
C653        C  0.04546876  0.49532601  0.45475751    -0.01550
C654        C  0.08225491  0.48627987  0.44281793     0.03420
C655        C  0.12772395  0.42486062  0.49740457     0.38070
C656        C  0.01720940  0.02305533  0.44253536     0.38060
C657        C  0.09090516  0.00464908  0.41804092     0.36480
C658        C  0.04638000  0.41853102  0.50853950     0.36480
N659        N  0.09755578  0.01954774  0.39827442    -0.38340
N660        N  0.03224137  0.39795159  0.52429381    -0.38340
N661        N  0.99482521  0.04519942  0.43255550    -0.37780
N662        N  0.14943850  0.41178012  0.51248075    -0.37780
C663        C  0.44711057  0.49449286  0.47759211    -0.04450
C664        C  0.41782705  0.52634333  0.47315279    -0.01570
C665        C  0.38580048  0.51852612  0.45673718     0.03420
C666        C  0.38153939  0.47839443  0.44525389    -0.04450
C667        C  0.41265727  0.44869432  0.44640610    -0.01550
C668        C  0.44513964  0.45624817  0.46259586     0.03420
C669        C  0.41684213  0.56552721  0.48788949     0.38070
C670        C  0.41023758  0.40922401  0.43160133     0.38060
C671        C  0.47268459  0.42158615  0.46574417     0.36480
C672        C  0.35512846  0.55048876  0.45365834     0.36480
N673        N  0.99308017  0.39224953  0.46773187    -0.38340
N674        N  0.33078356  0.57602937  0.45120563    -0.38340
N675        N  0.40833135  0.37791386  0.41971694    -0.37780
N676        N  0.41310407  0.09616092  0.50020134    -0.37780
C677        C  0.47373568  0.49976431  0.50097279     0.01450
C678        C  0.01402939  0.00067276  0.49947946     0.01450
C679        C  0.48312626  0.74381530  0.49709549     0.01450
C680        C  0.02272709  0.75474554  0.49972666     0.01450
C681        C  0.34203238  0.96386356  0.43752887     0.43350
N682        N  0.28800029  0.95483565  0.41740347     0.02240
C683        C  0.17515807  0.77459838  0.41577048    -0.05640
H684        H  0.33720247  0.75061746  0.40279804     0.07730
C685        C  0.32294599  0.83003209  0.32049158    -0.05990
Co686      Co  0.25055566  0.87409570  0.43238255     0.74180
N687        N  0.29610304  0.80109807  0.41138234    -0.25170
Co688      Co  0.25219590  0.80048675  0.38291768     0.74070
C689        C  0.33932895  0.78765984  0.32652591     0.43450
N690        N  0.28842866  0.93567548  0.34180345     0.01850
N691        N  0.29523420  0.80629796  0.35466270     0.01960
N692        N  0.18174208  0.82252413  0.44777794    -0.46020
H693        H  0.33309596  0.90466174  0.46170805     0.07710
N694        N  0.29502017  0.83046453  0.42952565     0.02240
N695        N  0.21085410  0.80070110  0.35344884     0.01980
C696        C  0.17562083  0.77445402  0.32253426     0.43590
N697        N  0.28567197  0.96167180  0.36182417    -0.24630
C698        C  0.17623515  0.91731005  0.45151238    -0.05550
N699        N  0.31876343  0.98045054  0.41916603    -0.45730
N700        N  0.19155369  0.76643369  0.34571728    -0.45960
C701        C  0.15077133  0.95242510  0.44451090     0.43360
N702        N  0.21035064  0.82570014  0.43092260     0.02230
N703        N  0.20123511  0.95729697  0.36061669    -0.24650
N704        N  0.29042340  0.92271274  0.43327447    -0.25140
N705        N  0.20313904  0.93061478  0.34069865     0.01870
H706        H  0.17306549  0.01829955  0.36631262     0.07760
H707        H  0.18339439  0.83630732  0.29925562     0.07790
N708        N  0.20800488  0.79799497  0.41179641    -0.25190
N709        N  0.29493086  0.83807480  0.33826486    -0.24800
N710        N  0.20074959  0.94899674  0.41875515     0.02230
C711        C  0.34849212  0.79619644  0.43773085     0.43630
C712        C  0.31085608  0.99348599  0.35919673    -0.06050
N713        N  0.20983324  0.83164457  0.33644327    -0.24800
H714        H  0.32743681  0.84846783  0.30332836     0.07780
N715        N  0.32506569  0.82864424  0.44523328    -0.46020
H716        H  0.31398066  0.01928557  0.37288302     0.07770
C717        C  0.16296525  0.98085050  0.32881414     0.43470
C718        C  0.32296977  0.92640406  0.44726287    -0.05550
Co719      Co  0.24335305  0.95639673  0.38988187     0.73820
N720        N  0.31332219  0.95030048  0.32429859    -0.45740
C721        C  0.15787480  0.79126756  0.44024898     0.43730
N722        N  0.16782929  0.97086609  0.42371993    -0.45730
Co723      Co  0.24901396  0.88408415  0.33869695     0.73890
C724        C  0.18753953  0.81846095  0.31660020    -0.06060
C725        C  0.32882478  0.77733052  0.41490126    -0.05620
N726        N  0.20564726  0.91757668  0.43480407    -0.25150
N727        N  0.32073953  0.77592949  0.34823177    -0.45910
H728        H  0.16461013  0.74958718  0.40318831     0.07740
C729        C  0.17646822  0.98931086  0.35502692    -0.06030
Cl730      Cl  0.24815484  0.87866398  0.38554875    -0.49040
C731        C  0.32877257  0.98700329  0.33400214     0.43500
H732        H  0.17314304  0.89359628  0.46597790     0.07710
N733        N  0.18166435  0.94436205  0.32112355    -0.45750
C734        C  0.34994442  0.53822378  0.56750063     0.43350
N735        N  0.29389812  0.54672257  0.58528302     0.02240
C736        C  0.17634373  0.72446291  0.58041740    -0.05640
H737        H  0.33952824  0.75064143  0.59360038     0.07730
C738        C  0.30845481  0.68230413  0.68225887    -0.05990
Co739      Co  0.25403596  0.62465159  0.56639920     0.74180
N740        N  0.29767783  0.69995913  0.58651380    -0.25170
Co741      Co  0.25091747  0.70226256  0.61411634     0.74070
C742        C  0.32230764  0.72545905  0.67640987     0.43450
N743        N  0.28590058  0.57233347  0.66046808     0.01850
N744        N  0.28984003  0.69998357  0.64434183     0.01960
N745        N  0.18233292  0.67276964  0.55032279    -0.46020
H746        H  0.34070338  0.59427971  0.54062799     0.07710
N747        N  0.29700675  0.66982156  0.56869029     0.02240
N748        N  0.20596906  0.70308030  0.64208749     0.01980
C749        C  0.16397155  0.72632243  0.67076318     0.43590
N750        N  0.28620405  0.54286066  0.64209169    -0.24630
C751        C  0.18179006  0.57791045  0.54689289    -0.05550
N752        N  0.32582526  0.52225403  0.58554224    -0.45730
N753        N  0.18412657  0.73654830  0.64913997    -0.45960
C754        C  0.15721701  0.54251900  0.55440328     0.43360
N755        N  0.21202549  0.67200582  0.56631836     0.02230
N756        N  0.20260356  0.54595538  0.63751800    -0.24650
N757        N  0.29607064  0.57720075  0.56821217    -0.25140
N758        N  0.20130785  0.57344887  0.65694731     0.01870
H759        H  0.17813411  0.48418706  0.63092014     0.07760
H760        H  0.16826135  0.66218110  0.69209558     0.07790
N761        N  0.20952377  0.70166727  0.58437366    -0.25190
N762        N  0.28733683  0.66990676  0.66180692    -0.24800
N763        N  0.20640089  0.54893602  0.58055121     0.02230
C764        C  0.34946362  0.70407546  0.55902384     0.43630
C765        C  0.30843841  0.50999740  0.64978844    -0.06050
N766        N  0.20262891  0.67134727  0.65831076    -0.24800
H767        H  0.30926513  0.66578873  0.70033391     0.07780
N768        N  0.32660620  0.67132006  0.55235505    -0.46020
H769        H  0.31087832  0.47952805  0.63994791     0.07770
C770        C  0.16400181  0.52158199  0.66791505     0.43470
C771        C  0.33015920  0.57364843  0.55555238    -0.05550
Co772      Co  0.24717954  0.54542177  0.61104218     0.73820
N773        N  0.30597599  0.56040394  0.68097878    -0.45740
C774        C  0.15810575  0.70455008  0.55759514     0.43730
N775        N  0.17424847  0.52606969  0.57584061    -0.45730
Co776      Co  0.24423468  0.62170833  0.65969207     0.73890
C777        C  0.17563372  0.68205621  0.67611521    -0.06060
C778        C  0.33045779  0.72340301  0.58225066    -0.05620
N779        N  0.21068620  0.57959562  0.56392117    -0.25150
N780        N  0.30975325  0.73342502  0.65244011    -0.45910
H781        H  0.16579350  0.75036113  0.59256359     0.07740
C782        C  0.17908512  0.51329945  0.64223297    -0.06030
Cl783      Cl  0.24914425  0.62366117  0.61314132    -0.49040
C784        C  0.32206320  0.52177716  0.67550496     0.43500
H785        H  0.17790098  0.60048610  0.53175889     0.07710
N786        N  0.17895449  0.55936451  0.67596402    -0.45750
C787        C  0.25490937  0.48926695  0.99876457     0.01450
C788        C  0.21421189  0.48366256  0.99478893     0.01450
C789        C  0.25651514  0.73868339  0.99741974     0.01450
C790        C  0.21510997  0.74025986  0.99943633     0.01450
C791        C  0.39613626  0.55325142  0.94629860     0.43350
N792        N  0.44607818  0.56141174  0.92093046     0.02240
C793        C  0.05834198  0.74198919  0.91091919    -0.05640
H794        H  0.39418881  0.75641986  0.89427553     0.07730
C795        C  0.41242509  0.67695241  0.81961731    -0.05990
Co796      Co  0.48532216  0.64371347  0.93272408     0.74180
N797        N  0.43867476  0.71389754  0.90914175    -0.25170
Co798      Co  0.48243743  0.71117784  0.88109695     0.74070
C799        C  0.39690191  0.72025722  0.82476995     0.43450
N800        N  0.44441523  0.57358084  0.84398478     0.01850
N801        N  0.43980703  0.70354705  0.85331237     0.01960
N802        N  0.05605839  0.69746838  0.94452924    -0.46020
H803        H  0.40776477  0.61714334  0.96666000     0.07710
N804        N  0.43926107  0.68797192  0.92880731     0.02240
N805        N  0.02383339  0.70703567  0.85198102     0.01980
C806        C  0.05851862  0.72997613  0.82031633     0.43590
N807        N  0.44681949  0.54868934  0.86419092    -0.24630
C808        C  0.06257512  0.59875534  0.94965330    -0.05550
N809        N  0.41650338  0.53532112  0.92621631    -0.45730
N810        N  0.04315493  0.74033942  0.84350775    -0.45960
C811        C  0.08681326  0.56201430  0.94112488     0.43360
N812        N  0.02581852  0.69187169  0.92913114     0.02230
N813        N  0.03000885  0.55084403  0.86067016    -0.24650
N814        N  0.44551156  0.59537468  0.93601584    -0.25140
N815        N  0.02872452  0.57721065  0.84104378     0.01870
H816        H  0.05395749  0.48745368  0.86420248     0.07760
H817        H  0.05005967  0.66651807  0.79790129     0.07790
N818        N  0.02618991  0.71726372  0.90920388    -0.25190
N819        N  0.43955672  0.67010359  0.83774659    -0.24800
N820        N  0.03343272  0.56609872  0.91861224     0.02230
C821        C  0.38229770  0.71855213  0.93086611     0.43630
C822        C  0.42525542  0.51400263  0.86041292    -0.06050
N823        N  0.02432911  0.67460803  0.83552049    -0.24800
H824        H  0.40725136  0.65597701  0.80338608     0.07780
N825        N  0.40596772  0.68952701  0.94212091    -0.46020
H826        H  0.42505173  0.48649044  0.87267297     0.07770
C827        C  0.06450587  0.52438136  0.82703247     0.43470
C828        C  0.41553721  0.59303394  0.95249947    -0.05550
Co829      Co  0.48931562  0.55612840  0.89145987     0.73820
N830        N  0.42280771  0.55625537  0.82561218    -0.45740
C831        C  0.07789134  0.72870422  0.93463869     0.43730
N832        N  0.06600556  0.54337621  0.92189936    -0.45730
Co833      Co  0.48428888  0.62380785  0.83930604     0.73890
C834        C  0.04649265  0.68560756  0.81519960    -0.06060
C835        C  0.40409653  0.73505935  0.90903463    -0.05620
N836        N  0.53101406  0.59894288  0.93451408    -0.25150
N837        N  0.41539296  0.73393549  0.84611506    -0.45910
H838        H  0.06760535  0.76501912  0.89692652     0.07740
C839        C  0.05193173  0.51670328  0.85357757    -0.06030
Cl840      Cl  0.48561406  0.63359064  0.88599505    -0.49040
C841        C  0.40982046  0.51873934  0.83474500     0.43500
H842        H  0.06705790  0.62258731  0.96404263     0.07710
N843        N  0.04808416  0.56204960  0.82058431    -0.45750
C844        C  0.10816249  0.85689621  0.74605816     0.01450
C845        C  0.11010371  0.90139447  0.74567494     0.01450
C846        C  0.35716855  0.85513110  0.75309413     0.01450
C847        C  0.35931394  0.89920570  0.75543907     0.01450
C848        C  0.11311741  0.64528783  0.25141592     0.01450
C849        C  0.12273295  0.60155168  0.24821145     0.01450
C850        C  0.37362566  0.65101626  0.25287487     0.01450
C851        C  0.37106836  0.60666472  0.25356993     0.01450
C852        C  0.39179762  0.95303251  0.05642968     0.43350
N853        N  0.44101142  0.94954420  0.08219324     0.02240
C854        C  0.06490412  0.77533453  0.08713446    -0.05640
H855        H  0.39790843  0.75447257  0.09936841     0.07730
C856        C  0.41935790  0.82302429  0.18233100    -0.05990
Co857      Co  0.48837563  0.87258763  0.06767772     0.74180
N858        N  0.44275279  0.79945429  0.08826497    -0.25170
Co859      Co  0.48630014  0.80058538  0.11701128     0.74070
C860        C  0.40726718  0.77925606  0.17601795     0.43450
N861        N  0.44062308  0.93251804  0.15940168     0.01850
N862        N  0.44315730  0.80370661  0.14539892     0.01960
N863        N  0.06386492  0.82357585  0.05541382    -0.46020
H864        H  0.41312085  0.89412491  0.03396509     0.07710
N865        N  0.44494023  0.82615843  0.06907742     0.02240
N866        N  0.02710320  0.80265227  0.14667753     0.01980
C867        C  0.05585198  0.77537419  0.17980031     0.43590
N868        N  0.44027502  0.95868864  0.13976283    -0.24630
C869        C  0.06007608  0.92508626  0.05159932    -0.05550
N870        N  0.40825988  0.97177402  0.07753836    -0.45730
N871        N  0.04432444  0.76774828  0.15540728    -0.45960
C872        C  0.08069266  0.96220610  0.06144489     0.43360
N873        N  0.03221734  0.82685530  0.07033678     0.02230
N874        N  0.02486503  0.96048117  0.14040508    -0.24650
N875        N  0.44555080  0.91765714  0.06580196    -0.25140
N876        N  0.02634644  0.93389561  0.15978015     0.01870
H877        H  0.05278892  0.01863624  0.13163282     0.07760
H878        H  0.04143349  0.83635047  0.20362552     0.07790
N879        N  0.03182601  0.79912059  0.08908977    -0.25190
N880        N  0.44226659  0.83504975  0.16265137    -0.24800
N881        N  0.02894989  0.95226875  0.08416729     0.02230
C882        C  0.38908524  0.79508335  0.06309201     0.43630
C883        C  0.41534346  0.99091007  0.14495215    -0.06050
N884        N  0.02588743  0.83394602  0.16399189    -0.24800
H885        H  0.41678187  0.83986796  0.20054903     0.07780
N886        N  0.41406819  0.82415221  0.05375919    -0.46020
H887        H  0.41280821  0.01953428  0.13374749     0.07770
C888        C  0.06822922  0.98397944  0.16927574     0.43470
C889        C  0.41670728  0.91763838  0.04902917    -0.05550
Co890      Co  0.48345963  0.95609103  0.11145967     0.73820
N891        N  0.41805736  0.94681987  0.17861752    -0.45740
C892        C  0.08631019  0.79182861  0.06470945     0.43730
N893        N  0.05940594  0.97823259  0.08145102    -0.45730
Co894      Co  0.48400902  0.88420538  0.16183822     0.73890
C895        C  0.04374502  0.81997588  0.18529941    -0.06060
C896        C  0.40853427  0.77796473  0.08608324    -0.05620
N897        N  0.02962734  0.92045042  0.06739601    -0.25150
N898        N  0.42323678  0.77006856  0.15282770    -0.45910
H899        H  0.07364265  0.75074093  0.10032394     0.07740
C900        C  0.05027363  0.99207293  0.14431104    -0.06030
Cl901      Cl  0.48571850  0.87836368  0.11473334    -0.49040
C902        C  0.40061553  0.98342849  0.17090959     0.43500
H903        H  0.06652797  0.90484431  0.03514907     0.07710
N904        N  0.05127867  0.94735416  0.17767662    -0.45750
C905        C  0.37631571  0.58010504  0.22922279    -0.04450
C906        C  0.41284916  0.57863810  0.21622177    -0.01570
C907        C  0.41990581  0.04855196  0.19629493     0.03420
C908        C  0.39092540  0.01852461  0.18952688    -0.04450
C909        C  0.35397796  0.52061838  0.20178604    -0.01550
C910        C  0.34673799  0.55094734  0.22164546     0.03420
C911        C  0.44529990  0.60187181  0.22707259     0.38070
C912        C  0.32339351  0.99143819  0.19395686     0.38060
C913        C  0.30904471  0.55115958  0.23477665     0.36480
C914        C  0.45791649  0.04687780  0.18366450     0.36480
N915        N  0.27893833  0.55062608  0.24519900    -0.38340
N916        N  0.48782568  0.04515471  0.17303227    -0.38340
N917        N  0.29885700  0.96838434  0.18760441    -0.37780
N918        N  0.47034159  0.61915721  0.23768458    -0.37780
C919        C  0.40007581  0.74445297  0.19468766    -0.04450
C920        C  0.37187066  0.71291870  0.18937679    -0.01570
C921        C  0.36545885  0.67913473  0.20668512     0.03420
C922        C  0.38760949  0.67626249  0.22972151    -0.04450
C923        C  0.41873925  0.70583621  0.23334781    -0.01550
C924        C  0.42445930  0.73966250  0.21628875     0.03420
C925        C  0.34818639  0.71610801  0.16638054     0.38070
C926        C  0.44599045  0.70224770  0.25459610     0.38060
C927        C  0.45616324  0.76922758  0.22128216     0.36480
C928        C  0.33425359  0.64952084  0.20097921     0.36480
N929        N  0.48129396  0.79250002  0.22608375    -0.38340
N930        N  0.30867121  0.62719192  0.19553462    -0.38340
N931        N  0.46943969  0.70095023  0.27060746    -0.37780
N932        N  0.32916807  0.71832222  0.14808289    -0.37780
C933        C  0.12249592  0.57182934  0.22375949    -0.04450
C934        C  0.11958902  0.58457910  0.19782245    -0.01570
C935        C  0.10296095  0.55630077  0.17906572     0.03420
C936        C  0.09321266  0.01355441  0.18571541    -0.04450
C937        C  0.10983244  0.99839803  0.20863274    -0.01550
C938        C  0.12802554  0.52683111  0.22596557     0.03420
C939        C  0.13471238  0.62507644  0.18967353     0.38070
C940        C  0.11211100  0.95309030  0.21347826     0.38060
C941        C  0.16059244  0.50961963  0.24051479     0.36480
C942        C  0.09620776  0.57249843  0.15355016     0.36480
N943        N  0.18707277  0.49439293  0.25092979    -0.38340
N944        N  0.09152674  0.58703584  0.13345364    -0.38340
N945        N  0.11437794  0.91702740  0.21741531    -0.37780
N946        N  0.14591150  0.65679182  0.18148248    -0.37780
C947        C  0.06477945  0.74056919  0.19897138    -0.04450
C948        C  0.05390572  0.69702922  0.19486648    -0.01570
C949        C  0.06430495  0.66510272  0.21312806     0.03420
C950        C  0.08708490  0.67573512  0.23486488    -0.04450
C951        C  0.08363902  0.71955628  0.24204081    -0.01550
C952        C  0.07996532  0.75102909  0.22338028     0.03420
C953        C  0.03094985  0.68473565  0.17265732     0.38070
C954        C  0.07283847  0.73201718  0.26811262     0.38060
C955        C  0.09190740  0.79374137  0.23030132     0.36480
C956        C  0.04696009  0.62360754  0.21141830     0.36480
N957        N  0.10195781  0.82741656  0.23646375    -0.38340
N958        N  0.03376321  0.58991661  0.20999077    -0.38340
N959        N  0.06286307  0.74302909  0.28848270    -0.37780
N960        N  0.51245617  0.67465346  0.15502876    -0.37780
C961        C  0.07641402  0.49089095  0.80755643    -0.04450
C962        C  0.04785626  0.96722012  0.79402947    -0.01570
C963        C  0.05913633  0.93317069  0.77725970     0.03420
C964        C  0.09870369  0.92864008  0.76920154    -0.04450
C965        C  0.12675362  0.95617972  0.78058893    -0.01550
C966        C  0.11620183  0.48457344  0.80094285     0.03420
C967        C  0.00818788  0.98373730  0.79307378     0.38070
C968        C  0.16635776  0.95653265  0.77061326     0.38060
C969        C  0.14604432  0.50938173  0.81390652     0.36480
C970        C  0.02964897  0.90729848  0.76492343     0.36480
N971        N  0.16984242  0.52912159  0.82431765    -0.38340
N972        N  0.00737935  0.88667915  0.75376421    -0.38340
N973        N  0.19751095  0.95736632  0.76178647    -0.37780
N974        N  0.47750338  0.99928379  0.79091013    -0.37780
C975        C  0.08870719  0.83225476  0.76776517    -0.04450
C976        C  0.10369569  0.83161285  0.79325281    -0.01570
C977        C  0.09293620  0.79874508  0.81030966     0.03420
C978        C  0.06981505  0.76408347  0.80177464    -0.04450
C979        C  0.05462441  0.76500940  0.77657027    -0.01550
C980        C  0.06153522  0.80012128  0.76062462     0.03420
C981        C  0.13442942  0.86033771  0.80135016     0.38070
C982        C  0.03353978  0.72913229  0.76591910     0.38060
C983        C  0.04219295  0.80138413  0.73581443     0.36480
C984        C  0.10847121  0.79898210  0.83627775     0.36480
N985        N  0.02663180  0.80157344  0.71609893    -0.38340
N986        N  0.12083776  0.79927915  0.85696147    -0.38340
N987        N  0.01804773  0.70042610  0.75638060    -0.37780
N988        N  0.15976243  0.88138795  0.80881658    -0.37780
C989        C  0.39483233  0.48429925  0.81796109    -0.04450
C990        C  0.41498277  0.94504683  0.81471972    -0.01570
C991        C  0.40434229  0.91656261  0.79461335     0.03420
C992        C  0.36964176  0.92401499  0.78002110    -0.04450
C993        C  0.34639566  0.96048764  0.78726281    -0.01550
C994        C  0.36072960  0.49186542  0.80407753     0.03420
C995        C  0.44859800  0.93510482  0.83074051     0.38070
C996        C  0.30597257  0.96583668  0.77999980     0.38060
C997        C  0.33936096  0.53191987  0.80775157     0.36480
C998        C  0.43051528  0.88098629  0.78943500     0.36480
N999        N  0.32247116  0.56380013  0.81049645    -0.38340
N1000       N  0.45236113  0.85272640  0.78728425    -0.38340
N1001       N  0.27330420  0.97402422  0.77654402    -0.37780
N1002       N  0.47548983  0.92699379  0.84334327    -0.37780
C1003       C  0.36971146  0.82377569  0.77348025    -0.04450
C1004       C  0.39537333  0.78985862  0.76588767    -0.01570
C1005       C  0.39932066  0.75326456  0.78086586     0.03420
C1006       C  0.38290442  0.75223759  0.80581669    -0.04450
C1007       C  0.35903700  0.78690781  0.81431821    -0.01550
C1008       C  0.35153384  0.82188797  0.79806777     0.03420
C1009       C  0.42041712  0.79321410  0.74334514     0.38070
C1010       C  0.34085519  0.78576718  0.83962129     0.38060
C1011       C  0.32399252  0.85464386  0.80657938     0.36480
C1012       C  0.41999986  0.71676936  0.76983625     0.36480
N1013       N  0.30158064  0.88009822  0.81378816    -0.38340
N1014       N  0.43539316  0.68760367  0.76024364    -0.38340
N1015       N  0.32631268  0.78475925  0.85977907    -0.37780
N1016       N  0.44151712  0.79439669  0.72585467    -0.37780
C1017       C  0.12448627  0.77671809  0.05279129    -0.04450
C1018       C  0.13132829  0.73326202  0.04810623    -0.01570
C1019       C  0.16461158  0.71980939  0.03358866     0.03420
C1020       C  0.19240153  0.74910221  0.02412281    -0.04450
C1021       C  0.18938599  0.79105511  0.03331361    -0.01550
C1022       C  0.15389379  0.80544943  0.04493850     0.03420
C1023       C  0.10272895  0.70223120  0.05650059     0.38070
C1024       C  0.22155291  0.81969447  0.02812670     0.38060
C1025       C  0.14446769  0.84943016  0.04330117     0.36480
C1026       C  0.17330861  0.67542933  0.03360704     0.36480
N1027       N  0.13575989  0.88399729  0.03923422    -0.38340
N1028       N  0.17633677  0.63975049  0.03779877    -0.38340
N1029       N  0.24820197  0.84046879  0.02278540    -0.37780
N1030       N  0.08007026  0.67735443  0.06311578    -0.37780
C1031       C  0.28940459  0.74469654  0.01865201    -0.04450
C1032       C  0.28540505  0.75155601  0.04592677    -0.01570
C1033       C  0.31737991  0.76903678  0.06062610     0.03420
C1034       C  0.35345175  0.77977779  0.04859983    -0.04450
C1035       C  0.35671986  0.77216327  0.02201981    -0.01550
C1036       C  0.32943317  0.74565535  0.01014148     0.03420
C1037       C  0.25368054  0.73309336  0.06036804     0.38070
C1038       C  0.39210993  0.78245629  0.00772860     0.38060
C1039       C  0.34802480  0.70624608  0.00178547     0.36480
C1040       C  0.31233512  0.77825383  0.08781952     0.36480
N1041       N  0.36478863  0.67516809  0.99632962    -0.38340
N1042       N  0.30805420  0.78634124  0.10943585    -0.38340
N1043       N  0.42014306  0.79056889  0.99614429    -0.37780
N1044       N  0.23004025  0.71817884  0.07346408    -0.37780
C1045       C  0.18728632  0.74099357  0.97578646    -0.04450
C1046       C  0.17832829  0.70380185  0.96079291    -0.01570
C1047       C  0.14543852  0.70272355  0.94417857     0.03420
C1048       C  0.11856915  0.73659303  0.94371292    -0.04450
C1049       C  0.12836486  0.77482676  0.95587993    -0.01550
C1050       C  0.16305906  0.77779687  0.97080319     0.03420
C1051       C  0.20034293  0.66477848  0.96167515     0.38070
C1052       C  0.10164077  0.81084279  0.95359767     0.38060
C1053       C  0.17254722  0.81982516  0.98015842     0.36480
C1054       C  0.13863277  0.66616573  0.92732523     0.36480
N1055       N  0.17746616  0.85485576  0.98637393    -0.38340
N1056       N  0.13354291  0.63748591  0.91359120    -0.38340
N1057       N  0.07995049  0.83913004  0.95154696    -0.37780
N1058       N  0.21369740  0.63113167  0.95864227    -0.37780
C1059       C  0.33989959  0.72425298  0.93755961    -0.04450
C1060       C  0.31819128  0.68833997  0.94439701    -0.01570
C1061       C  0.28859300  0.69244785  0.96316807     0.03420
C1062       C  0.27418376  0.73291202  0.97073698    -0.04450
C1063       C  0.28827418  0.76850420  0.95729581    -0.01550
C1064       C  0.32282358  0.76475957  0.94199014     0.03420
C1065       C  0.32760133  0.64721951  0.93307711     0.38070
C1066       C  0.26869843  0.80897902  0.96038316     0.38060
C1067       C  0.34177342  0.80237296  0.93229117     0.36480
C1068       C  0.28212409  0.65736078  0.97992193     0.36480
N1069       N  0.35689793  0.83243443  0.92449663    -0.38340
N1070       N  0.27639486  0.63125781  0.99469555    -0.38340
N1071       N  0.25239004  0.84127541  0.96184779    -0.37780
N1072       N  0.33420442  0.61497129  0.92293663    -0.37780
C1073       C  0.11730639  0.97914417  0.04974022    -0.04450
C1074       C  0.15431154  0.96471356  0.05853413    -0.01570
C1075       C  0.18631564  0.95749539  0.04074907     0.03420
C1076       C  0.18192825  0.96702313  0.01406432    -0.04450
C1077       C  0.14181247  0.97260250  0.00674190    -0.01550
C1078       C  0.11410983  0.98970838  0.02393409     0.03420
C1079       C  0.15740642  0.95105350  0.08501301     0.38070
C1080       C  0.12507134  0.44507248  0.98731158     0.38060
C1081       C  0.07762236  0.00742483  0.01422562     0.36480
C1082       C  0.21651021  0.92831420  0.04911829     0.36480
N1083       N  0.04863735  0.52179933  0.00653343    -0.38340
N1084       N  0.23958744  0.90567791  0.05798408    -0.38340
N1085       N  0.10965015  0.42314607  0.97251910    -0.37780
N1086       N  0.15974400  0.93973795  0.10603408    -0.37780
C1087       C  0.27906634  0.96662645  0.01874354    -0.04450
C1088       C  0.28405339  0.98378228  0.04422782    -0.01570
C1089       C  0.32007530  0.97779355  0.05744381     0.03420
C1090       C  0.35300050  0.96092275  0.04408321    -0.04450
C1091       C  0.34792526  0.94616463  0.01853189    -0.01550
C1092       C  0.31025617  0.94175093  0.00832108     0.03420
C1093       C  0.25401059  0.01044343  0.05642932     0.38070
C1094       C  0.38136028  0.94150191  0.00107281     0.38060
C1095       C  0.30672139  0.92038022  0.98357721     0.36480
C1096       C  0.32369914  0.99155245  0.08403762     0.36480
N1097       N  0.30698875  0.90421851  0.96347563    -0.38340
N1098       N  0.32639894  0.00254514  0.10528417    -0.38340
N1099       N  0.40769138  0.93824916  0.98695970    -0.37780
N1100       N  0.23077866  0.03161915  0.06692412    -0.37780
C1101       C  0.12671724  0.54675816  0.95056529    -0.04450
C1102       C  0.14483262  0.50943140  0.93974286    -0.01570
C1103       C  0.17671808  0.48931887  0.95233635     0.03420
C1104       C  0.19486805  0.50922003  0.97371233    -0.04450
C1105       C  0.18174521  0.54993763  0.98112498    -0.01550
C1106       C  0.14667127  0.56744058  0.97121686     0.03420
C1107       C  0.12945838  0.98914916  0.91672881     0.38070
C1108       C  0.20187292  0.56961133  0.00239482     0.38060
C1109       C  0.13092901  0.60502387  0.98402477     0.36480
C1110       C  0.18507555  0.94485224  0.94635637     0.36480
N1111       N  0.11909056  0.63495689  0.99484904    -0.38340
N1112       N  0.19076953  0.90935603  0.94126291    -0.38340
N1113       N  0.22077468  0.58067656  0.01948893    -0.37780
N1114       N  0.11772989  0.97255737  0.89834633    -0.37780
C1115       C  0.35817050  0.53866610  0.95819797    -0.04450
C1116       C  0.34999858  0.54834700  0.98415899    -0.01570
C1117       C  0.31235237  0.54151519  0.99481874     0.03420
C1118       C  0.28341457  0.51617043  0.98178730    -0.04450
C1119       C  0.29244643  0.50644024  0.95524218    -0.01550
C1120       C  0.32854090  0.51921582  0.94358690     0.03420
C1121       C  0.38136615  0.56270364  0.00098910     0.38070
C1122       C  0.26818254  0.48056509  0.93891471     0.38060
C1123       C  0.33551870  0.51138388  0.91627715     0.36480
C1124       C  0.30537462  0.56114684  0.01982835     0.36480
N1125       N  0.34072478  0.50511810  0.89452928    -0.38340
N1126       N  0.30269163  0.57939951  0.03928103    -0.38340
N1127       N  0.25459517  0.46051677  0.92247192    -0.37780
N1128       N  0.40612337  0.57378962  0.01462104    -0.37780
C1129       C  0.14952729  0.48846739  0.68566293    -0.04450
C1130       C  0.17004368  0.94959544  0.68898822    -0.01570
C1131       C  0.15849639  0.92109760  0.70845819     0.03420
C1132       C  0.12273205  0.92794673  0.72248737    -0.04450
C1133       C  0.09985237  0.96466614  0.71584504    -0.01550
C1134       C  0.11463272  0.49582110  0.69926861     0.03420
C1135       C  0.20435955  0.93936092  0.67319578     0.38070
C1136       C  0.05962142  0.97067242  0.72413563     0.38060
C1137       C  0.09282729  0.53523080  0.69534015     0.36480
C1138       C  0.18432023  0.88531116  0.71310397     0.36480
N1139       N  0.07556703  0.56662548  0.69227884    -0.38340
N1140       N  0.20535204  0.85632890  0.71463750    -0.38340
N1141       N  0.02724306  0.97873009  0.72914177    -0.37780
N1142       N  0.23174072  0.93086257  0.66076863    -0.37780
C1143       C  0.14815852  0.75953647  0.68965863    -0.04450
C1144       C  0.15473285  0.75608700  0.71645517    -0.01570
C1145       C  0.14765220  0.79106465  0.73309895     0.03420
C1146       C  0.12453273  0.82647460  0.72525807    -0.04450
C1147       C  0.11396208  0.82801563  0.69889083    -0.01550
C1148       C  0.12905710  0.79712206  0.68104213     0.03420
C1149       C  0.16757245  0.71675478  0.72810220     0.38070
C1150       C  0.08654478  0.85997318  0.68992855     0.38060
C1151       C  0.12477890  0.80470062  0.65380416     0.36480
C1152       C  0.16596143  0.79028579  0.75823617     0.36480
N1153       N  0.12205592  0.81228107  0.63218239    -0.38340
N1154       N  0.18139813  0.78774018  0.77792235    -0.38340
N1155       N  0.06431514  0.88487361  0.68240805    -0.37780
N1156       N  0.17642149  0.68595315  0.73865523    -0.37780
C1157       C  0.35028313  0.92742642  0.73275902    -0.04450
C1158       C  0.38000591  0.95345369  0.72224068    -0.01570
C1159       C  0.37143073  0.98206479  0.70224985     0.03420
C1160       C  0.33215032  0.49038461  0.69567547    -0.04450
C1161       C  0.30209040  0.46891403  0.70883947    -0.01550
C1162       C  0.31121401  0.93420770  0.72478524     0.03420
C1163       C  0.41932340  0.95149439  0.73235631     0.38070
C1164       C  0.26333036  0.48801783  0.71012819     0.38580
C1165       C  0.28017299  0.91024484  0.73660834     0.36480
C1166       C  0.40281477  0.00448911  0.68940506     0.36480
N1167       N  0.25650336  0.89228839  0.74804832    -0.38340
N1168       N  0.42791770  0.02220487  0.67908387    -0.38340
N1169       N  0.23342722  0.50546091  0.71240664    -0.37780
N1170       N  0.45056932  0.95035568  0.74079761    -0.37780
C1171       C  0.34067160  0.83189478  0.72966240    -0.04450
C1172       C  0.31087733  0.80147915  0.73419436    -0.01570
C1173       C  0.30635207  0.76586640  0.71778483     0.03420
C1174       C  0.32886631  0.76159716  0.69497155    -0.04450
C1175       C  0.35462156  0.79485626  0.68842901    -0.01550
C1176       C  0.36103849  0.82945871  0.70569703     0.03420
C1177       C  0.28591181  0.80492345  0.75685342     0.38070
C1178       C  0.37670494  0.79213344  0.66447215     0.38060
C1179       C  0.39199691  0.85891253  0.69943421     0.36480
C1180       C  0.27909777  0.73315774  0.72533790     0.36480
N1181       N  0.41769948  0.88031383  0.69311931    -0.38340
N1182       N  0.25819505  0.70673841  0.73211849    -0.38340
N1183       N  0.39437359  0.79022633  0.64540455    -0.37780
N1184       N  0.26542030  0.80657583  0.77467456    -0.37780
C1185       C  0.13109307  0.57717092  0.27272444    -0.04450
C1186       C  0.10232329  0.54906435  0.28256595    -0.01570
C1187       C  0.11240135  0.01794226  0.30097856     0.03420
C1188       C  0.15103299  0.01520256  0.31046517    -0.04450
C1189       C  0.17897014  0.54497629  0.30189374    -0.01550
C1190       C  0.16939216  0.57527162  0.28295152     0.03420
C1191       C  0.06269965  0.55069776  0.27260347     0.38070
C1192       C  0.21880884  0.54121891  0.31069845     0.38060
C1193       C  0.20003340  0.60012522  0.27118424     0.36480
C1194       C  0.08340260  0.98757190  0.30937420     0.36480
N1195       N  0.22378768  0.61988482  0.26094107    -0.38340
N1196       N  0.06029693  0.96315199  0.31594288    -0.38340
N1197       N  0.25047070  0.53654551  0.31790844    -0.37780
N1198       N  0.03102284  0.55200749  0.26472776    -0.37780
C1199       C  0.16143170  0.73907299  0.30485472    -0.04450
C1200       C  0.17124134  0.73760702  0.27833493    -0.01570
C1201       C  0.16295267  0.70116709  0.26317019     0.03420
C1202       C  0.13599904  0.67029342  0.27185200    -0.04450
C1203       C  0.12447812  0.67230071  0.29813767    -0.01550
C1204       C  0.13955566  0.70451666  0.31481253     0.03420
C1205       C  0.18529626  0.77476621  0.26512594     0.38070
C1206       C  0.09335265  0.64534516  0.30749512     0.38060
C1207       C  0.12909278  0.70392315  0.34187235     0.36480
C1208       C  0.17924926  0.69815086  0.23738302     0.36480
N1209       N  0.12073846  0.70282468  0.36345234    -0.38340
N1210       N  0.19372003  0.69710873  0.21721097    -0.38340
N1211       N  0.06809234  0.62486562  0.31548594    -0.37780
N1212       N  0.19454389  0.80391334  0.25322460    -0.37780
C1213       C  0.36526470  0.58000095  0.27787151    -0.04450
C1214       C  0.38626912  0.54036719  0.28054288    -0.01570
C1215       C  0.37358320  0.00959380  0.29825325     0.03420
C1216       C  0.34646007  0.02079430  0.31762338    -0.04450
C1217       C  0.33358540  0.56373873  0.31913325    -0.01550
C1218       C  0.33706859  0.58984652  0.29743614     0.03420
C1219       C  0.42126712  0.52969372  0.26575960     0.38070
C1220       C  0.31534417  0.58180563  0.34217044     0.38060
C1221       C  0.30736690  0.62263503  0.29510903     0.36480
C1222       C  0.38954343  0.96654598  0.29698746     0.36480
N1223       N  0.28229070  0.64772732  0.29556841    -0.38340
N1224       N  0.40203299  0.93219723  0.29580669    -0.38340
N1225       N  0.30105926  0.59757769  0.36022817    -0.37780
N1226       N  0.44939914  0.51852657  0.25491120    -0.37780
C1227       C  0.36178034  0.68112798  0.27447336    -0.04450
C1228       C  0.33116623  0.71090529  0.26974025    -0.01570
C1229       C  0.32536126  0.74661995  0.28588140     0.03420
C1230       C  0.35006291  0.75390014  0.30713619    -0.04450
C1231       C  0.38041045  0.72420091  0.31212848    -0.01550
C1232       C  0.38490290  0.68679091  0.29676785     0.03420
C1233       C  0.30283932  0.70316999  0.24951964     0.38070
C1234       C  0.40974572  0.73458205  0.33116174     0.38060
C1235       C  0.41387052  0.65488212  0.30362797     0.36480
C1236       C  0.29367224  0.77602302  0.28031407     0.36480
N1237       N  0.43699209  0.62946416  0.30921206    -0.38340
N1238       N  0.26923201  0.80058179  0.27598866    -0.38340
N1239       N  0.43437300  0.74366021  0.34539322    -0.37780
N1240       N  0.27883478  0.69814119  0.23416215    -0.37780
C1241       C  0.04907625  0.73068047  0.51757774    -0.04450
C1242       C  0.07862545  0.70472031  0.50607562    -0.01570
C1243       C  0.11459849  0.69814066  0.51867319     0.03420
C1244       C  0.11967867  0.71210678  0.54453778    -0.04450
C1245       C  0.08764661  0.73197795  0.55737134    -0.01550
C1246       C  0.05424218  0.74478190  0.54339548     0.03420
C1247       C  0.07526712  0.69131440  0.47935740     0.38070
C1248       C  0.08752485  0.73712081  0.58506253     0.38060
C1249       C  0.02676618  0.77482508  0.55535074     0.36480
C1250       C  0.14726063  0.68045947  0.50372870     0.36480
N1251       N  0.00575536  0.79891509  0.56551638    -0.38340
N1252       N  0.17319198  0.66694240  0.49153879    -0.38340
N1253       N  0.08626852  0.73983073  0.60725609    -0.37780
N1254       N  0.07446574  0.68133064  0.45787802    -0.37780
C1255       C  0.45837446  0.71297198  0.51411407    -0.04450
C1256       C  0.42231349  0.69831058  0.50359829    -0.01570
C1257       C  0.38665383  0.70312829  0.51735773     0.03420
C1258       C  0.38651505  0.71265695  0.54402210    -0.04450
C1259       C  0.42322110  0.71793739  0.55606401    -0.01550
C1260       C  0.45883587  0.71379477  0.54153924     0.03420
C1261       C  0.42127126  0.67750823  0.47859922     0.38070
C1262       C  0.42494401  0.72202353  0.58382847     0.38060
C1263       C  0.48942787  0.69017490  0.55434195     0.36480
C1264       C  0.34984773  0.69977735  0.50346529     0.36480
N1265       N  0.51259214  0.67085726  0.56562059    -0.38340
N1266       N  0.32055072  0.69759187  0.49236100    -0.38340
N1267       N  0.42672255  0.72479437  0.60599788    -0.37780
N1268       N  0.41863822  0.65986997  0.45898850    -0.37780
C1269       C  0.11968834  0.78517304  0.45434573    -0.04450
C1270       C  0.08335204  0.78186397  0.44157797    -0.01570
C1271       C  0.04727256  0.78556980  0.45566918     0.03420
C1272       C  0.04699744  0.78652018  0.48312697    -0.04450
C1273       C  0.08275437  0.80149502  0.49399570    -0.01550
C1274       C  0.11875573  0.79509494  0.48096183     0.03420
C1275       C  0.08267159  0.77996187  0.41371143     0.38070
C1276       C  0.08401765  0.82112118  0.51931121     0.38060
C1277       C  0.15499531  0.79755551  0.49561767     0.36480
C1278       C  0.01592845  0.80692019  0.44223274     0.36480
N1279       N  0.18366511  0.79934895  0.50742396    -0.38340
N1280       N  0.99229948  0.82439607  0.43030492    -0.38340
N1281       N  0.08799746  0.83679316  0.53940226    -0.37780
N1282       N  0.08172296  0.77895503  0.39147343    -0.37780
C1283       C  0.38665084  0.78651690  0.45123633    -0.04450
C1284       C  0.39351402  0.80391530  0.47632656    -0.01570
C1285       C  0.42860874  0.79491236  0.48953025     0.03420
C1286       C  0.45720916  0.76732024  0.47867438    -0.04450
C1287       C  0.45133244  0.75103840  0.45344563    -0.01550
C1288       C  0.41653444  0.76070971  0.43981812     0.03420
C1289       C  0.36322162  0.82771777  0.49030944     0.38070
C1290       C  0.47940315  0.72079010  0.44223165     0.38060
C1291       C  0.41100752  0.74074470  0.41491693     0.36480
C1292       C  0.43249424  0.80856847  0.51621595     0.36480
N1293       N  0.40736624  0.72310598  0.39543027    -0.38340
N1294       N  0.43461741  0.81908468  0.53756814    -0.38340
N1295       N  0.50077624  0.69644925  0.43263919    -0.37780
N1296       N  0.33940470  0.84644288  0.50187462    -0.37780
C1297       C  0.11787361  0.53206832  0.54251987    -0.04450
C1298       C  0.08771362  0.51013044  0.55575143    -0.01570
C1299       C  0.05081544  0.50220194  0.54364542     0.03420
C1300       C  0.04233357  0.51982045  0.51916576    -0.04450
C1301       C  0.07022650  0.54779445  0.50882949    -0.01550
C1302       C  0.10888632  0.54798317  0.51784402     0.03420
C1303       C  0.09478507  0.99427563  0.58135051     0.38070
C1304       C  0.05961103  0.57502683  0.48769650     0.38060
C1305       C  0.13945397  0.55890103  0.49958972     0.36480
C1306       C  0.02218519  0.97653473  0.55682965     0.36480
N1307       N  0.16343362  0.56684671  0.48456507    -0.38340
N1308       N  0.99997387  0.95599676  0.56800914    -0.38340
N1309       N  0.05077558  0.59706141  0.47105645    -0.37780
N1310       N  0.10017352  0.98150018  0.60180629    -0.37780
C1311       C  0.38917663  0.52230037  0.56018808    -0.04450
C1312       C  0.39288389  0.48151828  0.54932313    -0.01570
C1313       C  0.42436222  0.47250202  0.53252590     0.03420
C1314       C  0.45168054  0.50453808  0.52601809    -0.04450
C1315       C  0.45128581  0.54300403  0.54052977    -0.01550
C1316       C  0.42022541  0.55138627  0.55794971     0.03420
C1317       C  0.36194816  0.45055053  0.55293202     0.38070
C1318       C  0.47816973  0.57684629  0.53455005     0.38060
C1319       C  0.41844760  0.59125858  0.57227106     0.36480
C1320       C  0.42583944  0.93133355  0.52005627     0.36480
N1321       N  0.41680144  0.62275781  0.58399818    -0.38340
N1322       N  0.42525173  0.89846052  0.50996811    -0.38340
N1323       N  0.99899766  0.60412571  0.52904062    -0.37780
N1324       N  0.33725275  0.42591009  0.55563880    -0.37780
C1325       C  0.11081177  0.96125177  0.45578685    -0.04450
C1326       C  0.09961042  0.94188385  0.47933127    -0.01570
C1327       C  0.06086059  0.94499237  0.48796253     0.03420
C1328       C  0.03659049  0.97741182  0.47879253    -0.04450
C1329       C  0.04546584  0.99532543  0.45475818    -0.01550
C1330       C  0.08225191  0.98627917  0.44281842     0.03420
C1331       C  0.12772188  0.92486060  0.49740491     0.38070
C1332       C  0.01721267  0.52305678  0.44253503     0.38060
C1333       C  0.09090861  0.50465047  0.41804070     0.36480
C1334       C  0.04637812  0.91853072  0.50854039     0.36480
N1335       N  0.09755959  0.51954978  0.39827442    -0.38340
N1336       N  0.03224016  0.89795082  0.52429472    -0.38340
N1337       N  0.99482874  0.54520169  0.43255559    -0.37780
N1338       N  0.14943677  0.91178013  0.51248091    -0.37780
C1339       C  0.44710799  0.99449104  0.47759236    -0.04450
C1340       C  0.41782622  0.02634278  0.47315233    -0.01570
C1341       C  0.38579938  0.01852627  0.45673688     0.03420
C1342       C  0.38153724  0.97839437  0.44525395    -0.04450
C1343       C  0.41265455  0.94869346  0.44640622    -0.01550
C1344       C  0.44513679  0.95624655  0.46259617     0.03420
C1345       C  0.41684445  0.06552787  0.48788782     0.38070
C1346       C  0.41023432  0.90922316  0.43160153     0.38060
C1347       C  0.47268121  0.92158423  0.46574511     0.36480
C1348       C  0.35512842  0.05048993  0.45365774     0.36480
N1349       N  0.99307658  0.89224766  0.46773398    -0.38340
N1350       N  0.33078435  0.07603138  0.45120476    -0.38340
N1351       N  0.40832769  0.87791301  0.41971717    -0.37780
N1352       N  0.41309794  0.59615886  0.50020388    -0.37780
C1353       C  0.97373173  0.99976133  0.50097356     0.01450
C1354       C  0.51403331  0.50067381  0.49947886     0.01450
C1355       C  0.98312596  0.24381367  0.49709607     0.01450
C1356       C  0.52272728  0.25474324  0.49972655     0.01450
C1357       C  0.84203494  0.46386292  0.43752833     0.43350
N1358       N  0.78800272  0.45483517  0.41740304     0.02240
C1359       C  0.67515869  0.27459902  0.41577025    -0.05640
H1360       H  0.83720438  0.25061792  0.40279739     0.07730
C1361       C  0.82294727  0.33003185  0.32049153    -0.05990
Co1362     Co  0.75055739  0.37409562  0.43238233     0.74180
N1363       N  0.79610429  0.30109772  0.41138210    -0.25170
Co1364     Co  0.75219693  0.30048659  0.38291753     0.74070
C1365       C  0.83933010  0.28765956  0.32652586     0.43450
N1366       N  0.78843033  0.43567505  0.34180306     0.01850
N1367       N  0.79523518  0.30629761  0.35466252     0.01960
N1368       N  0.68174267  0.32252496  0.44777759    -0.46020
H1369       H  0.83309839  0.40466131  0.46170758     0.07710
N1370       N  0.79502141  0.33046410  0.42952544     0.02240
N1371       N  0.71085504  0.30070111  0.35344871     0.01980
C1372       C  0.67562160  0.27445417  0.32253414     0.43590
N1373       N  0.78567404  0.46167126  0.36182383    -0.24630
C1374       C  0.67623787  0.41731085  0.45151237    -0.05550
N1375       N  0.81876591  0.48045000  0.41916558    -0.45730
N1376       N  0.69155446  0.26643379  0.34571715    -0.45960
C1377       C  0.65077422  0.45242595  0.44451084     0.43360
N1378       N  0.71035160  0.32570049  0.43092243     0.02230
N1379       N  0.70123713  0.45729716  0.36061655    -0.24650
N1380       N  0.79042575  0.42271225  0.43327404    -0.25140
N1381       N  0.70314065  0.43061487  0.34069854     0.01870
H1382       H  0.67306781  0.51829989  0.36631256     0.07760
H1383       H  0.68339542  0.33630742  0.29925549     0.07790
N1384       N  0.70800580  0.29799522  0.41179630    -0.25190
N1385       N  0.79493198  0.33807447  0.33826470    -0.24800
N1386       N  0.70075214  0.44899709  0.41875495     0.02230
C1387       C  0.84849395  0.29619684  0.43773029     0.43630
C1388       C  0.81085835  0.49348523  0.35919638    -0.06050
N1389       N  0.70983430  0.33164458  0.33644313    -0.24800
H1390       H  0.82743828  0.34846766  0.30332836     0.07780
N1391       N  0.82506718  0.32864419  0.44523286    -0.46020
H1392       H  0.81398325  0.51928468  0.37288272     0.07770
C1393       C  0.66296687  0.48085070  0.32881421     0.43470
C1394       C  0.82297226  0.42640348  0.44726235    -0.05550
Co1395     Co  0.74335533  0.45639661  0.38988158     0.73820
N1396       N  0.81332374  0.45030001  0.32429810    -0.45740
C1397       C  0.65787512  0.29126857  0.44024859     0.43730
N1398       N  0.66783205  0.47086670  0.42371976    -0.45730
Co1399     Co  0.74901530  0.38408397  0.33869673     0.73890
C1400       C  0.68754050  0.31846105  0.31660008    -0.06060
C1401       C  0.82882642  0.27733063  0.41490081    -0.05620
N1402       N  0.70564971  0.41757710  0.43480390    -0.25150
N1403       N  0.82074055  0.27592916  0.34823166    -0.45910
H1404       H  0.66461065  0.24958793  0.40318805     0.07740
C1405       C  0.67647030  0.48931116  0.35502687    -0.06030
Cl1406     Cl  0.74815640  0.37866383  0.38554853    -0.49040
C1407       C  0.82877445  0.48700263  0.33400169     0.43500
H1408       H  0.67314586  0.39359715  0.46597793     0.07710
N1409       N  0.68166571  0.44436213  0.32112355    -0.45750
C1410       C  0.84994161  0.03821839  0.56750498     0.43350
N1411       N  0.79389501  0.04671930  0.58528693     0.02240
C1412       C  0.67634608  0.22446409  0.58041590    -0.05640
H1413       H  0.83952816  0.25063738  0.59360583     0.07730
C1414       C  0.80844173  0.18229783  0.68226327    -0.05990
Co1415     Co  0.75403604  0.12464932  0.56640060     0.74180
N1416       N  0.79767825  0.19995494  0.58651784    -0.25170
Co1417     Co  0.75091443  0.20225996  0.61411775     0.74070
C1418       C  0.82230162  0.22544977  0.67641327     0.43450
N1419       N  0.78588362  0.07233008  0.66047299     0.01850
N1420       N  0.78983244  0.19997766  0.64434519     0.01960
N1421       N  0.68233565  0.17277082  0.55032125    -0.46020
H1422       H  0.84070252  0.09427389  0.54063183     0.07710
N1423       N  0.79700854  0.16981729  0.56869434     0.02240
N1424       N  0.70596212  0.20308058  0.64208624     0.01980
C1425       C  0.66396413  0.22632585  0.67076073     0.43590
N1426       N  0.78619040  0.04285639  0.64209705    -0.24630
C1427       C  0.68178968  0.07791104  0.54689102    -0.05550
N1428       N  0.82582147  0.02224947  0.58554651    -0.45730
N1429       N  0.68412282  0.23655098  0.64913884    -0.45960
C1430       C  0.65721460  0.04252060  0.55440086     0.43360
N1431       N  0.71202715  0.17200569  0.56631768     0.02230
N1432       N  0.70259049  0.04595540  0.63751498    -0.24650
N1433       N  0.79606895  0.07719698  0.56821577    -0.25140
N1434       N  0.70129168  0.07344826  0.65694449     0.01870
H1435       H  0.67811777  0.98419007  0.63091295     0.07760
H1436       H  0.66824308  0.16218216  0.69209102     0.07790
N1437       N  0.70952491  0.20166709  0.58437299    -0.25190
N1438       N  0.78732392  0.16990227  0.66181081    -0.24800
N1439       N  0.70639811  0.04893486  0.58054960     0.02230
C1440       C  0.84946681  0.20407045  0.55903021     0.43630
C1441       C  0.80842117  0.00999225  0.64979737    -0.06050
N1442       N  0.70261643  0.17134669  0.65830837    -0.24800
H1443       H  0.80925008  0.16578233  0.70033829     0.07780
N1444       N  0.82660972  0.17131529  0.55236039    -0.46020
H1445       H  0.81086224  0.97952206  0.63995794     0.07770
C1446       C  0.66397941  0.02158358  0.66790731     0.43470
C1447       C  0.83015766  0.07364340  0.55555643    -0.05550
Co1448     Co  0.74717203  0.04541939  0.61104335     0.73820
N1449       N  0.80595355  0.06040126  0.68098613    -0.45740
C1450       C  0.65810904  0.20455221  0.55759314     0.43730
N1451       N  0.67424488  0.02607038  0.57583831    -0.45730
Co1452     Co  0.74421976  0.12170608  0.65969294     0.73890
C1453       C  0.67561964  0.18205725  0.67611139    -0.06060
C1454       C  0.83045886  0.22339853  0.58225607    -0.05620
N1455       N  0.71068521  0.07959475  0.56391998    -0.25150
N1456       N  0.80974982  0.23341620  0.65244306    -0.45910
H1457       H  0.66579575  0.25036221  0.59256213     0.07740
C1458       C  0.67906808  0.01330169  0.64222655    -0.06030
Cl1459     Cl  0.74913815  0.12365864  0.61314249    -0.49040
C1460       C  0.82204038  0.02177344  0.67551528     0.43500
H1461       H  0.67790203  0.10048756  0.53175739     0.07710
N1462       N  0.67893300  0.05936442  0.67595871    -0.45750
C1463       C  0.75490788  0.98926704  0.99876396     0.01450
C1464       C  0.71421043  0.98366150  0.99478825     0.01450
C1465       C  0.75651424  0.23868447  0.99741799     0.01450
C1466       C  0.71510902  0.24026027  0.99943452     0.01450
C1467       C  0.89613474  0.05325026  0.94629804     0.43350
N1468       N  0.94607595  0.06141004  0.92092925     0.02240
C1469       C  0.55834114  0.24198638  0.91091667    -0.05640
H1470       H  0.89418787  0.25641882  0.89427439     0.07730
C1471       C  0.91242012  0.17695610  0.81961590    -0.05990
Co1472     Co  0.98532097  0.14371118  0.93272189     0.74180
N1473       N  0.93867390  0.21389656  0.90914050    -0.25170
Co1474     Co  0.98243541  0.21117604  0.88109508     0.74070
C1475       C  0.89690152  0.22026316  0.82476776     0.43450
N1476       N  0.94440576  0.07358054  0.84398388     0.01850
N1477       N  0.93980365  0.20354793  0.85331114     0.01960
N1478       N  0.55605808  0.19746508  0.94452648    -0.46020
H1479       H  0.90776435  0.11714224  0.96665916     0.07710
N1480       N  0.93926028  0.18797062  0.92880592     0.02240
N1481       N  0.52383007  0.20703169  0.85197857     0.01980
C1482       C  0.55851859  0.22996943  0.82031484     0.43590
N1483       N  0.94681164  0.04868980  0.86419029    -0.24630
C1484       C  0.56257309  0.09875163  0.94965031    -0.05550
N1485       N  0.91650107  0.03531978  0.92621550    -0.45730
N1486       N  0.54315508  0.24033355  0.84350615    -0.45960
C1487       C  0.58681115  0.06201063  0.94112174     0.43360
N1488       N  0.52581803  0.19186852  0.92912849     0.02230
N1489       N  0.53000183  0.05084143  0.86066592    -0.24650
N1490       N  0.94551003  0.09537307  0.93601453    -0.25140
N1491       N  0.52871590  0.07720855  0.84103988     0.01870
H1492       H  0.55395268  0.98745160  0.86419684     0.07760
H1493       H  0.55005479  0.16651310  0.79789873     0.07790
N1494       N  0.52618911  0.21726076  0.90920136    -0.25190
N1495       N  0.93955068  0.17010441  0.83774547    -0.24800
N1496       N  0.53343077  0.06609602  0.91860868     0.02230
C1497       C  0.88229702  0.21855110  0.93086497     0.43630
C1498       C  0.92524316  0.01400586  0.86041502    -0.06050
N1499       N  0.52432323  0.17460468  0.83551758    -0.24800
H1500       H  0.90724553  0.15598158  0.80338440     0.07780
N1501       N  0.90596697  0.18952568  0.94211958    -0.46020
H1502       H  0.92503866  0.98649475  0.87267594     0.07770
C1503       C  0.56449789  0.02438098  0.82702686     0.43470
C1504       C  0.91553622  0.09303263  0.95249862    -0.05550
Co1505     Co  0.98931119  0.05612656  0.89145734     0.73820
N1506       N  0.92279321  0.05625615  0.82561326    -0.45740
C1507       C  0.57789087  0.22870116  0.93463604     0.43730
N1508       N  0.56600350  0.04337305  0.92189586    -0.45730
Co1509     Co  0.98428109  0.12380646  0.83930371     0.73890
C1510       C  0.54648829  0.18560263  0.81519707    -0.06060
C1511       C  0.90409577  0.23505851  0.90903354    -0.05620
N1512       N  0.03101233  0.09893980  0.93451084    -0.25150
N1513       N  0.91539298  0.23393917  0.84611322    -0.45910
H1514       H  0.56760397  0.26501698  0.89692427     0.07740
C1515       C  0.55192502  0.01670135  0.85357221    -0.06030
Cl1516     Cl  0.98561018  0.13358878  0.88599283    -0.49040
C1517       C  0.90980383  0.01874228  0.83474827     0.43500
H1518       H  0.56705508  0.12258241  0.96403986     0.07710
N1519       N  0.54807505  0.06204911  0.82057985    -0.45750
C1520       C  0.60817555  0.35689600  0.74606383     0.01450
C1521       C  0.61012010  0.40139438  0.74568415     0.01450
C1522       C  0.85718674  0.35513403  0.75308569     0.01450
C1523       C  0.85933763  0.39920922  0.75542603     0.01450
C1524       C  0.61311739  0.14528821  0.25141580     0.01450
C1525       C  0.62273279  0.10155203  0.24821136     0.01450
C1526       C  0.87362574  0.15101593  0.25287485     0.01450
C1527       C  0.87106804  0.10666444  0.25357011     0.01450
C1528       C  0.89179843  0.45303312  0.05642954     0.43350
N1529       N  0.94101200  0.44954438  0.08219313     0.02240
C1530       C  0.56490424  0.27533487  0.08713391    -0.05640
H1531       H  0.89790777  0.25447253  0.09936732     0.07730
C1532       C  0.91935796  0.32302362  0.18233065    -0.05990
Co1533     Co  0.98837563  0.37258773  0.06767738     0.74180
N1534       N  0.94275234  0.29945431  0.08826427    -0.25170
Co1535     Co  0.98629981  0.30058513  0.11701071     0.74070
C1536       C  0.90726730  0.27925537  0.17601760     0.43450
N1537       N  0.94062309  0.43251789  0.15940145     0.01850
N1538       N  0.94315697  0.30370624  0.14539841     0.01960
N1539       N  0.56386483  0.32357637  0.05541340    -0.46020
H1540       H  0.91312144  0.39412559  0.03396481     0.07710
N1541       N  0.94493996  0.32615863  0.06907682     0.02240
N1542       N  0.52710285  0.30265181  0.14667705     0.01980
C1543       C  0.55585190  0.27537388  0.17979977     0.43590
N1544       N  0.94027528  0.45868856  0.13976264    -0.24630
C1545       C  0.56007611  0.42508617  0.05159904    -0.05550
N1546       N  0.90826059  0.47177439  0.07753831    -0.45730
N1547       N  0.54432416  0.26774785  0.15540679    -0.45960
C1548       C  0.58069304  0.46220567  0.06144475     0.43360
N1549       N  0.53221713  0.32685536  0.07033628     0.02230
N1550       N  0.52486524  0.46048073  0.14040501    -0.24650
N1551       N  0.94555124  0.41765742  0.06580178    -0.25140
N1552       N  0.52634646  0.43389513  0.15978005     0.01870
H1553       H  0.55278906  0.51863588  0.13163290     0.07760
H1554       H  0.54143358  0.33635019  0.20362497     0.07790
N1555       N  0.53182587  0.29912055  0.08908921    -0.25190
N1556       N  0.94226636  0.33504931  0.16265093    -0.24800
N1557       N  0.52895036  0.45226841  0.08416726     0.02230
C1558       C  0.88908491  0.29508362  0.06309097     0.43630
C1559       C  0.91534395  0.49091020  0.14495196    -0.06050
N1560       N  0.52588718  0.33394558  0.16399141    -0.24800
H1561       H  0.91678216  0.33986714  0.20054874     0.07780
N1562       N  0.91406805  0.32415257  0.05375844    -0.46020
H1563       H  0.91280896  0.51953447  0.13374732     0.07770
C1564       C  0.56822915  0.48397899  0.16927583     0.43470
C1565       C  0.91670788  0.41763894  0.04902894    -0.05550
Co1566     Co  0.98346002  0.45609084  0.11145957     0.73820
N1567       N  0.91805749  0.44681991  0.17861730    -0.45740
C1568       C  0.58631037  0.29182938  0.06470900     0.43730
N1569       N  0.55940658  0.47823203  0.08145104    -0.45730
Co1570     Co  0.98400888  0.38420497  0.16183791     0.73890
C1571       C  0.54374496  0.31997554  0.18529888    -0.06060
C1572       C  0.90853376  0.27796482  0.08608228    -0.05620
N1573       N  0.52962751  0.42045030  0.06739583    -0.25150
N1574       N  0.92323667  0.27006806  0.15282725    -0.45910
H1575       H  0.57364296  0.25074134  0.10032339     0.07740
C1576       C  0.55027376  0.49207251  0.14431108    -0.06030
Cl1577     Cl  0.98571844  0.37836347  0.11473301    -0.49040
C1578       C  0.90061594  0.48342872  0.17090939     0.43500
H1579       H  0.56652752  0.40484451  0.03514861     0.07710
N1580       N  0.55127853  0.44735367  0.17767663    -0.45750
C1581       C  0.87631547  0.08010457  0.22922307    -0.04450
C1582       C  0.91284906  0.07863738  0.21622223    -0.01570
C1583       C  0.91990597  0.54855262  0.19629450     0.03420
C1584       C  0.89092575  0.51852490  0.18952665    -0.04450
C1585       C  0.85397752  0.02061826  0.20178616    -0.01550
C1586       C  0.84673763  0.05094713  0.22164563     0.03420
C1587       C  0.94529987  0.10187073  0.22707324     0.38070
C1588       C  0.82339406  0.49143805  0.19395689     0.38060
C1589       C  0.80904426  0.05115957  0.23477672     0.36480
C1590       C  0.95791654  0.54687878  0.18366390     0.36480
N1591       N  0.77893781  0.05062627  0.24519900    -0.38340
N1592       N  0.98782562  0.54515598  0.17303152    -0.38340
N1593       N  0.79885764  0.46838400  0.18760455    -0.37780
N1594       N  0.97034159  0.11915582  0.23768540    -0.37780
C1595       C  0.90007609  0.24445216  0.19468731    -0.04450
C1596       C  0.87187087  0.21291792  0.18937654    -0.01570
C1597       C  0.86545900  0.17913408  0.20668498     0.03420
C1598       C  0.88760968  0.17626189  0.22972136    -0.04450
C1599       C  0.91873955  0.20583553  0.23334753    -0.01550
C1600       C  0.92445963  0.23966172  0.21628839     0.03420
C1601       C  0.84818653  0.21610718  0.16638033     0.38070
C1602       C  0.94599075  0.20224713  0.25459582     0.38060
C1603       C  0.95616360  0.26922679  0.22128171     0.36480
C1604       C  0.83425356  0.14952033  0.20097921     0.36480
N1605       N  0.98129434  0.29249923  0.22608326    -0.38340
N1606       N  0.80867102  0.12719158  0.19553471    -0.38340
N1607       N  0.96943998  0.20094977  0.27060719    -0.37780
N1608       N  0.82916815  0.21832136  0.14808270    -0.37780
C1609       C  0.62249599  0.07182979  0.22375935    -0.04450
C1610       C  0.61958897  0.08457962  0.19782233    -0.01570
C1611       C  0.60296090  0.05630128  0.17906560     0.03420
C1612       C  0.59321252  0.51355395  0.18571555    -0.04450
C1613       C  0.60983212  0.49839760  0.20863294    -0.01550
C1614       C  0.62802579  0.02683159  0.22596539     0.03420
C1615       C  0.63471225  0.12507699  0.18967342     0.38070
C1616       C  0.61211052  0.45308987  0.21347849     0.38060
C1617       C  0.66059270  0.00962024  0.24051466     0.36480
C1618       C  0.59620750  0.07249899  0.15355008     0.36480
N1619       N  0.68707305  0.99439369  0.25092972    -0.38340
N1620       N  0.59152631  0.08703644  0.13345359    -0.38340
N1621       N  0.61437736  0.41702699  0.21741554    -0.37780
N1622       N  0.64591131  0.15679241  0.18148237    -0.37780
C1623       C  0.56477950  0.24056908  0.19897093    -0.04450
C1624       C  0.55390552  0.19702915  0.19486628    -0.01570
C1625       C  0.56430476  0.16510285  0.21312798     0.03420
C1626       C  0.58708497  0.17573542  0.23486467    -0.04450
C1627       C  0.58363940  0.21955667  0.24204038    -0.01550
C1628       C  0.57996571  0.25102921  0.22337970     0.03420
C1629       C  0.53094940  0.18473543  0.17265726     0.38070
C1630       C  0.57283906  0.23201801  0.26811216     0.38060
C1631       C  0.59190819  0.29374147  0.23030046     0.36480
C1632       C  0.54695989  0.12360768  0.21141836     0.36480
N1633       N  0.60195893  0.32741661  0.23646270    -0.38340
N1634       N  0.53376304  0.08991674  0.20999084    -0.38340
N1635       N  0.56286385  0.24303025  0.28848222    -0.37780
N1636       N  0.01245553  0.17465312  0.15502881    -0.37780
C1637       C  0.57640413  0.99089211  0.80754927    -0.04450
C1638       C  0.54786767  0.46721947  0.79403480    -0.01570
C1639       C  0.55914964  0.43316843  0.77726676     0.03420
C1640       C  0.59871830  0.42863535  0.76921217    -0.04450
C1641       C  0.62676812  0.45617012  0.78060365    -0.01550
C1642       C  0.61619055  0.98458007  0.80093033     0.03420
C1643       C  0.50820000  0.48373798  0.79307513     0.38070
C1644       C  0.66637763  0.45651006  0.77063686     0.38060
C1645       C  0.64603433  0.00939139  0.81389059     0.36480
C1646       C  0.52966399  0.40729877  0.76492683     0.36480
N1647       N  0.66983353  0.02913351  0.82429905    -0.38340
N1648       N  0.50739709  0.38668076  0.75376442    -0.38340
N1649       N  0.69753755  0.45732984  0.76181970    -0.37780
N1650       N  0.97751610  0.49928406  0.79090732    -0.37780
C1651       C  0.58871878  0.33225111  0.76776894    -0.04450
C1652       C  0.60370682  0.33160361  0.79325663    -0.01570
C1653       C  0.59294428  0.29873439  0.81031154     0.03420
C1654       C  0.56982057  0.26407629  0.80177448    -0.04450
C1655       C  0.55463215  0.26500618  0.77656968    -0.01550
C1656       C  0.56154556  0.30011999  0.76062607     0.03420
C1657       C  0.63444245  0.36032416  0.80135630     0.38070
C1658       C  0.53354761  0.22913103  0.76591593     0.38060
C1659       C  0.54220422  0.30138726  0.73581568     0.36480
C1660       C  0.60847878  0.29896605  0.83627979     0.36480
N1661       N  0.52664367  0.30157997  0.71610001    -0.38340
N1662       N  0.62084507  0.29925885  0.85696357    -0.38340
N1663       N  0.51805588  0.20042658  0.75637523    -0.37780
N1664       N  0.65977687  0.38136976  0.80882543    -0.37780
C1665       C  0.89481545  0.98429900  0.81796687    -0.04450
C1666       C  0.91499580  0.44504505  0.81471434    -0.01570
C1667       C  0.90435893  0.41656556  0.79460452     0.03420
C1668       C  0.86966514  0.42402532  0.78000632    -0.04450
C1669       C  0.84642474  0.46050625  0.78724306    -0.01550
C1670       C  0.86070340  0.99185468  0.80409068     0.03420
C1671       C  0.94860622  0.43509764  0.83073824     0.38070
C1672       C  0.80601319  0.46588424  0.77995978     0.38060
C1673       C  0.83932593  0.03190236  0.80776825     0.36480
C1674       C  0.93053096  0.38098766  0.78942792     0.36480
N1675       N  0.82242841  0.06377722  0.81051632    -0.38340
N1676       N  0.95237545  0.35272619  0.78727900    -0.38340
N1677       N  0.77335636  0.47410296  0.77648406    -0.37780
N1678       N  0.97549463  0.42698248  0.84334313    -0.37780
C1679       C  0.86972775  0.32378171  0.77347386    -0.04450
C1680       C  0.89538653  0.28986088  0.76588312    -0.01570
C1681       C  0.89932994  0.25326836  0.78086308     0.03420
C1682       C  0.88291095  0.25224544  0.80581335    -0.04450
C1683       C  0.85904753  0.28692024  0.81431321    -0.01550
C1684       C  0.85154990  0.32190010  0.79806142     0.03420
C1685       C  0.92043009  0.29321042  0.74334003     0.38070
C1686       C  0.84086425  0.28578502  0.83961592     0.38060
C1687       C  0.82401433  0.35466306  0.80657131     0.36480
C1688       C  0.92000852  0.21677076  0.76983588     0.36480
N1689       N  0.80160780  0.38012511  0.81377734    -0.38340
N1690       N  0.93540177  0.18760326  0.76024525    -0.38340
N1691       N  0.82632060  0.28478136  0.85977348    -0.37780
N1692       N  0.94152929  0.29438814  0.72584895    -0.37780
C1693       C  0.62448628  0.27671896  0.05279052    -0.04450
C1694       C  0.63132818  0.23326289  0.04810540    -0.01570
C1695       C  0.66461070  0.21981031  0.03358704     0.03420
C1696       C  0.69240053  0.24910304  0.02412092    -0.04450
C1697       C  0.68938525  0.29105599  0.03331168    -0.01550
C1698       C  0.65389335  0.30545033  0.04493697     0.03420
C1699       C  0.60272911  0.20223205  0.05650015     0.38070
C1700       C  0.72155177  0.31969555  0.02812402     0.38060
C1701       C  0.64446679  0.34943085  0.04329874     0.36480
C1702       C  0.67330626  0.17542993  0.03360369     0.36480
N1703       N  0.63575912  0.38399765  0.03923068    -0.38340
N1704       N  0.67633298  0.13975043  0.03779382    -0.38340
N1705       N  0.74820032  0.34047017  0.02278208    -0.37780
N1706       N  0.58007064  0.17735524  0.06311561    -0.37780
C1707       C  0.78940376  0.24469847  0.01865023    -0.04450
C1708       C  0.78540436  0.25155684  0.04592510    -0.01570
C1709       C  0.81737934  0.26903695  0.06062470     0.03420
C1710       C  0.85345116  0.27977867  0.04859858    -0.04450
C1711       C  0.85671888  0.27216575  0.02201836    -0.01550
C1712       C  0.82943234  0.24565799  0.01013969     0.03420
C1713       C  0.75367975  0.23309377  0.06036608     0.38070
C1714       C  0.89210873  0.28245966  0.00772719     0.38060
C1715       C  0.84802441  0.20624888  0.00178377     0.36480
C1716       C  0.81233469  0.27825255  0.08781829     0.36480
N1717       N  0.86478855  0.17517100  0.99632808    -0.38340
N1718       N  0.80805386  0.28633882  0.10943477    -0.38340
N1719       N  0.92014172  0.29057288  0.99614290    -0.37780
N1720       N  0.73003937  0.21817876  0.07346184    -0.37780
C1721       C  0.68728530  0.24099285  0.97578459    -0.04450
C1722       C  0.67832778  0.20380068  0.96079129    -0.01570
C1723       C  0.64543823  0.20272162  0.94417674     0.03420
C1724       C  0.61856849  0.23659077  0.94371060    -0.04450
C1725       C  0.62836370  0.27482488  0.95587743    -0.01550
C1726       C  0.66305767  0.27779567  0.97080092     0.03420
C1727       C  0.70034270  0.16477753  0.96167404     0.38070
C1728       C  0.60163951  0.31084076  0.95359472     0.38060
C1729       C  0.67254537  0.31982422  0.98015593     0.36480
C1730       C  0.63863307  0.16616329  0.92732369     0.36480
N1731       N  0.67746409  0.35485497  0.98637117    -0.38340
N1732       N  0.63354365  0.13748303  0.91358993    -0.38340
N1733       N  0.57994953  0.33912824  0.95154382    -0.37780
N1734       N  0.71369747  0.13113075  0.95864163    -0.37780
C1735       C  0.83989890  0.22425205  0.93755839    -0.04450
C1736       C  0.81819059  0.18833924  0.94439616    -0.01570
C1737       C  0.78859226  0.19244773  0.96316712     0.03420
C1738       C  0.77418282  0.23291213  0.97073533    -0.04450
C1739       C  0.78827295  0.26850376  0.95729353    -0.01550
C1740       C  0.82282261  0.26475873  0.94198817     0.03420
C1741       C  0.82760043  0.14721854  0.93307656     0.38070
C1742       C  0.76869619  0.30897828  0.96037949     0.38060
C1743       C  0.84177230  0.30237186  0.93228871     0.36480
C1744       C  0.78212346  0.15736153  0.97992165     0.36480
N1745       N  0.85689666  0.33243315  0.92449379    -0.38340
N1746       N  0.77639389  0.13125976  0.99469599    -0.38340
N1747       N  0.75238698  0.34127435  0.96184275    -0.37780
N1748       N  0.83420332  0.11497020  0.92293617    -0.37780
C1749       C  0.61730708  0.47914330  0.04974026    -0.04450
C1750       C  0.65431200  0.46471186  0.05853411    -0.01570
C1751       C  0.68631633  0.45749444  0.04074914     0.03420
C1752       C  0.68192935  0.46702352  0.01406454    -0.04450
C1753       C  0.64181367  0.47260334  0.00674193    -0.01550
C1754       C  0.61411081  0.48970846  0.02393425     0.03420
C1755       C  0.65740646  0.45105048  0.08501275     0.38070
C1756       C  0.62506998  0.94507087  0.98731204     0.38060
C1757       C  0.57762349  0.50742542  0.01422586     0.36480
C1758       C  0.71651085  0.42831294  0.04911810     0.36480
N1759       N  0.54863609  0.02179829  0.00653308    -0.38340
N1760       N  0.73958803  0.40567624  0.05798357    -0.38340
N1761       N  0.60964871  0.92314403  0.97251985    -0.37780
N1762       N  0.65974372  0.43973393  0.10603363    -0.37780
C1763       C  0.77906697  0.46662587  0.01874422    -0.04450
C1764       C  0.78405400  0.48378173  0.04422846    -0.01570
C1765       C  0.82007606  0.47779333  0.05744426     0.03420
C1766       C  0.85300120  0.46092302  0.04408338    -0.04450
C1767       C  0.84792569  0.44616452  0.01853218    -0.01550
C1768       C  0.81025647  0.44174992  0.00832188     0.03420
C1769       C  0.75401108  0.51044250  0.05643010     0.38070
C1770       C  0.88136032  0.44150226  0.00107274     0.38060
C1771       C  0.80672116  0.42037788  0.98357849     0.36480
C1772       C  0.82370008  0.49155213  0.08403808     0.36480
N1773       N  0.80698820  0.40421470  0.96347734    -0.38340
N1774       N  0.82640001  0.50254473  0.10528464    -0.38340
N1775       N  0.90769111  0.43824985  0.98695936    -0.37780
N1776       N  0.73077904  0.53161779  0.06692511    -0.37780
C1777       C  0.62671491  0.04675428  0.95056292    -0.04450
C1778       C  0.64482998  0.00942647  0.93974165    -0.01570
C1779       C  0.67671571  0.98931490  0.95233559     0.03420
C1780       C  0.69486588  0.00921749  0.97371109    -0.04450
C1781       C  0.68174293  0.04993545  0.98112279    -0.01550
C1782       C  0.64666916  0.06743799  0.97121404     0.03420
C1783       C  0.62946163  0.48915583  0.91672927     0.38070
C1784       C  0.70187049  0.06961017  0.00239240     0.38060
C1785       C  0.63092739  0.10502244  0.98402092     0.36480
C1786       C  0.68507701  0.44485627  0.94635642     0.36480
N1787       N  0.61908941  0.13495643  0.99484443    -0.38340
N1788       N  0.69076974  0.40935999  0.94126254    -0.38340
N1789       N  0.72077230  0.08067578  0.01948642    -0.37780
N1790       N  0.61773385  0.47256513  0.89834625    -0.37780
C1791       C  0.85816871  0.03866572  0.95819738    -0.04450
C1792       C  0.84999673  0.04834710  0.98415832    -0.01570
C1793       C  0.81235043  0.04151573  0.99481802     0.03420
C1794       C  0.78341253  0.01617102  0.98178662    -0.04450
C1795       C  0.79244409  0.00644115  0.95524145    -0.01550
C1796       C  0.82853888  0.01921590  0.94358627     0.03420
C1797       C  0.88136426  0.06270390  0.00098842     0.38070
C1798       C  0.76817909  0.98056782  0.93891362     0.38060
C1799       C  0.83551646  0.01138386  0.91627651     0.36480
C1800       C  0.80537269  0.06114765  0.01982756     0.36480
N1801       N  0.84072198  0.00511792  0.89452862    -0.38340
N1802       N  0.80268972  0.07940059  0.03928015    -0.38340
N1803       N  0.75459058  0.96052138  0.92247041    -0.37780
N1804       N  0.90612142  0.07379005  0.01462037    -0.37780
C1805       C  0.64950485  0.98846631  0.68565324    -0.04450
C1806       C  0.67006272  0.44959443  0.68899751    -0.01570
C1807       C  0.65851480  0.42109843  0.70846844     0.03420
C1808       C  0.62275215  0.42795115  0.72249900    -0.04450
C1809       C  0.59987694  0.46467542  0.71585883    -0.01550
C1810       C  0.61460661  0.99581427  0.69925600     0.03420
C1811       C  0.70437543  0.43935544  0.67320316     0.38070
C1812       C  0.55964881  0.47069125  0.72415311     0.38060
C1813       C  0.59279646  0.03522034  0.69532607     0.36480
C1814       C  0.68433575  0.38530926  0.71311331     0.36480
N1815       N  0.57553237  0.06661224  0.69226363    -0.38340
N1816       N  0.70536488  0.35632464  0.71464631    -0.38340
N1817       N  0.52727356  0.47875866  0.72916263    -0.37780
N1818       N  0.73175422  0.43085368  0.66077455    -0.37780
C1819       C  0.64815832  0.25954057  0.68965823    -0.04450
C1820       C  0.65473789  0.25608839  0.71645410    -0.01570
C1821       C  0.64766103  0.29106446  0.73309976     0.03420
C1822       C  0.62454326  0.32647727  0.72526147    -0.04450
C1823       C  0.61397055  0.32802328  0.69889475    -0.01550
C1824       C  0.62905914  0.29712900  0.68104416     0.03420
C1825       C  0.66758007  0.21675487  0.72809847     0.38070
C1826       C  0.58655682  0.35998661  0.68993517     0.38060
C1827       C  0.62477577  0.30470888  0.65380668     0.36480
C1828       C  0.66597289  0.29028160  0.75823614     0.36480
N1829       N  0.62204833  0.31228993  0.63218526    -0.38340
N1830       N  0.68141190  0.28773311  0.77792139    -0.38340
N1831       N  0.56432998  0.38489196  0.68241698    -0.37780
N1832       N  0.67643121  0.18595164  0.73864910    -0.37780
C1833       C  0.85030864  0.42742295  0.73274271    -0.04450
C1834       C  0.88003187  0.45344753  0.72222267    -0.01570
C1835       C  0.87145569  0.48206011  0.70223291     0.03420
C1836       C  0.83212603  0.99038429  0.69568850    -0.04450
C1837       C  0.80206551  0.96891489  0.70885277    -0.01550
C1838       C  0.81123953  0.43420317  0.72476876     0.03420
C1839       C  0.91935067  0.45148446  0.73233573     0.38070
C1840       C  0.76330375  0.98801493  0.71013586     0.38580
C1841       C  0.78019891  0.41024509  0.73659599     0.36480
C1842       C  0.90283944  0.50448085  0.68938549     0.36480
N1843       N  0.75653097  0.39229551  0.74804130    -0.38340
N1844       N  0.92794217  0.52219332  0.67906198    -0.38340
N1845       N  0.73339913  0.00545684  0.71240835    -0.37780
N1846       N  0.95059808  0.45034288  0.74077449    -0.37780
C1847       C  0.84068507  0.33189290  0.72965706    -0.04450
C1848       C  0.81088921  0.30148068  0.73419365    -0.01570
C1849       C  0.80635990  0.26586374  0.71778805     0.03420
C1850       C  0.82886889  0.26158839  0.69497300    -0.04450
C1851       C  0.85462591  0.29484359  0.68842600    -0.01550
C1852       C  0.86104864  0.32944894  0.70569074     0.03420
C1853       C  0.78592534  0.30493332  0.75685320     0.38070
C1854       C  0.87670501  0.29211400  0.66446766     0.38060
C1855       C  0.89200861  0.35889813  0.69942321     0.36480
C1856       C  0.77910734  0.23315737  0.72534739     0.36480
N1857       N  0.91771182  0.38029546  0.69310447    -0.38340
N1858       N  0.75820607  0.20674087  0.73213388    -0.38340
N1859       N  0.89437018  0.29020183  0.64539883    -0.37780
N1860       N  0.76543423  0.30659228  0.77467442    -0.37780
C1861       C  0.63109246  0.07717114  0.27272437    -0.04450
C1862       C  0.60232249  0.04906453  0.28256562    -0.01570
C1863       C  0.61240245  0.51794228  0.30097893     0.03420
C1864       C  0.65103428  0.51520264  0.31046526    -0.04450
C1865       C  0.67896898  0.04497631  0.30189397    -0.01550
C1866       C  0.66939137  0.07527173  0.28295173     0.03420
C1867       C  0.56269899  0.05069808  0.27260293     0.38070
C1868       C  0.71880746  0.04121905  0.31069909     0.38060
C1869       C  0.70003285  0.10012530  0.27118471     0.36480
C1870       C  0.58340384  0.48757201  0.30937491     0.36480
N1871       N  0.72378734  0.11988487  0.26094172    -0.38340
N1872       N  0.56029829  0.46315218  0.31594387    -0.38340
N1873       N  0.75046916  0.03654584  0.31790943    -0.37780
N1874       N  0.53102224  0.05200782  0.26472712    -0.37780
C1875       C  0.66143222  0.23907322  0.30485460    -0.04450
C1876       C  0.67124181  0.23760717  0.27833480    -0.01570
C1877       C  0.66295288  0.20116730  0.26317006     0.03420
C1878       C  0.63599909  0.17029380  0.27185186    -0.04450
C1879       C  0.62447819  0.17230120  0.29813753    -0.01550
C1880       C  0.63955597  0.20451702  0.31481240     0.03420
C1881       C  0.68529703  0.27476624  0.26512581     0.38070
C1882       C  0.59335263  0.14534577  0.30749500     0.38060
C1883       C  0.62909325  0.20392345  0.34187224     0.36480
C1884       C  0.67924955  0.19815089  0.23738291     0.36480
N1885       N  0.62073908  0.20282486  0.36345224    -0.38340
N1886       N  0.69372040  0.19710856  0.21721089    -0.38340
N1887       N  0.56809227  0.12486627  0.31548579    -0.37780
N1888       N  0.69454490  0.30391328  0.25322447    -0.37780
C1889       C  0.86526396  0.08000093  0.27787178    -0.04450
C1890       C  0.88626807  0.04036704  0.28054337    -0.01570
C1891       C  0.87358455  0.50959369  0.29825268     0.03420
C1892       C  0.84646157  0.52079386  0.31762296    -0.04450
C1893       C  0.83358413  0.06373927  0.31913348    -0.01550
C1894       C  0.83706778  0.08984691  0.29743632     0.03420
C1895       C  0.92126614  0.02969318  0.26576026     0.38070
C1896       C  0.81534287  0.08180645  0.34217058     0.38060
C1897       C  0.80736650  0.12263582  0.29510910     0.36480
C1898       C  0.88954491  0.46654594  0.29698663     0.36480
N1899       N  0.78229060  0.14772847  0.29556843    -0.38340
N1900       N  0.90203457  0.43219725  0.29580565    -0.38340
N1901       N  0.80105794  0.09757873  0.36022824    -0.37780
N1902       N  0.94939821  0.01852572  0.25491201    -0.37780
C1903       C  0.86178076  0.18112782  0.27447327    -0.04450
C1904       C  0.83116687  0.21090537  0.26974015    -0.01570
C1905       C  0.82536211  0.24661999  0.28588133     0.03420
C1906       C  0.85006385  0.25389994  0.30713611    -0.04450
C1907       C  0.88041118  0.22420048  0.31212839    -0.01550
C1908       C  0.88490339  0.18679050  0.29676774     0.03420
C1909       C  0.80283990  0.20317032  0.24951953     0.38070
C1910       C  0.90974640  0.23458124  0.33116177     0.38060
C1911       C  0.91387087  0.15488152  0.30362779     0.36480
C1912       C  0.79367310  0.27602316  0.28031411     0.36480
N1913       N  0.93699232  0.12946341  0.30921184    -0.38340
N1914       N  0.76923285  0.30058196  0.27598881    -0.38340
N1915       N  0.93437361  0.24365911  0.34539337    -0.37780
N1916       N  0.77883531  0.19814172  0.23416205    -0.37780
C1917       C  0.54907736  0.23067877  0.51757732    -0.04450
C1918       C  0.57862740  0.20472005  0.50607478    -0.01570
C1919       C  0.61460139  0.19814298  0.51867165     0.03420
C1920       C  0.61968163  0.21210864  0.54453624    -0.04450
C1921       C  0.58764929  0.23197855  0.55737027    -0.01550
C1922       C  0.55424385  0.24478089  0.54339488     0.03420
C1923       C  0.57526879  0.19131340  0.47935671     0.38070
C1924       C  0.58752863  0.23712265  0.58506139     0.38060
C1925       C  0.52676704  0.27482289  0.55535048     0.36480
C1926       C  0.64726462  0.18046585  0.50372645     0.36480
N1927       N  0.50575553  0.29891194  0.56551635    -0.38340
N1928       N  0.67319701  0.16695236  0.49153608    -0.38340
N1929       N  0.58627350  0.23983390  0.60725493    -0.37780
N1930       N  0.57446744  0.18132887  0.45787745    -0.37780
C1931       C  0.95837229  0.21297211  0.51411524    -0.04450
C1932       C  0.92230846  0.19831547  0.50360075    -0.01570
C1933       C  0.88665097  0.20313401  0.51736240     0.03420
C1934       C  0.88651630  0.21265591  0.54402740    -0.04450
C1935       C  0.92322425  0.21793105  0.55606765    -0.01550
C1936       C  0.95883720  0.21379063  0.54154051     0.03420
C1937       C  0.92126065  0.17751550  0.47860113     0.38070
C1938       C  0.92495058  0.22200997  0.58383233     0.38060
C1939       C  0.98943213  0.19017147  0.55434075     0.36480
C1940       C  0.84984258  0.19978996  0.50347188     0.36480
N1941       N  0.01259863  0.17085439  0.56561783    -0.38340
N1942       N  0.82054371  0.19761005  0.49236928    -0.38340
N1943       N  0.92673213  0.22477454  0.60600185    -0.37780
N1944       N  0.91862276  0.15987924  0.45899008    -0.37780
C1945       C  0.61968855  0.28517375  0.45434536    -0.04450
C1946       C  0.58335234  0.28186290  0.44157762    -0.01570
C1947       C  0.54727265  0.28556748  0.45566877     0.03420
C1948       C  0.54699732  0.28651813  0.48312659    -0.04450
C1949       C  0.58275381  0.30149449  0.49399529    -0.01550
C1950       C  0.61875545  0.29509610  0.48096140     0.03420
C1951       C  0.58267200  0.27996070  0.41371108     0.38070
C1952       C  0.58401652  0.32112076  0.51931078     0.38060
C1953       C  0.65499490  0.29755857  0.49561728     0.36480
C1954       C  0.51592844  0.30691761  0.44223230     0.36480
N1955       N  0.68366459  0.29935349  0.50742360    -0.38340
N1956       N  0.49229943  0.32439363  0.43030457    -0.38340
N1957       N  0.58799610  0.33679278  0.53940184    -0.37780
N1958       N  0.58172339  0.27895391  0.39147308    -0.37780
C1959       C  0.88665283  0.28651777  0.45123575    -0.04450
C1960       C  0.89351631  0.30391705  0.47632578    -0.01570
C1961       C  0.92861022  0.29491266  0.48953000     0.03420
C1962       C  0.95720985  0.26731905  0.47867462    -0.04450
C1963       C  0.95133325  0.25103686  0.45344597    -0.01550
C1964       C  0.91653596  0.26070937  0.43981796     0.03420
C1965       C  0.86322491  0.32772189  0.49030813     0.38070
C1966       C  0.97940240  0.22078570  0.44223313     0.38060
C1967       C  0.91100892  0.24074379  0.41491696     0.36480
C1968       C  0.93249472  0.30856754  0.51621600     0.36480
N1969       N  0.90736755  0.22310447  0.39543049    -0.38340
N1970       N  0.93461698  0.31908220  0.53756851    -0.38340
N1971       N  0.00077414  0.19644229  0.43264177    -0.37780
N1972       N  0.83940889  0.34644872  0.50187310    -0.37780
C1973       C  0.61786977  0.03207228  0.54251837    -0.04450
C1974       C  0.58771131  0.01013203  0.55575017    -0.01570
C1975       C  0.55081271  0.00220266  0.54364506     0.03420
C1976       C  0.54232900  0.01982124  0.51916588    -0.04450
C1977       C  0.57021950  0.04779784  0.50882949    -0.01550
C1978       C  0.60887978  0.04798964  0.51784341     0.03420
C1979       C  0.59478568  0.49427562  0.58135236     0.38070
C1980       C  0.55960043  0.07503031  0.48769725     0.38060
C1981       C  0.63944518  0.05891330  0.49958894     0.36480
C1982       C  0.52218696  0.47653467  0.55682957     0.36480
N1983       N  0.66342271  0.06686346  0.48456376    -0.38340
N1984       N  0.49997516  0.45599702  0.56800886    -0.38340
N1985       N  0.55076125  0.09706501  0.47105808    -0.37780
N1986       N  0.60017323  0.48150163  0.60180859    -0.37780
C1987       C  0.88917341  0.02229402  0.56019173    -0.04450
C1988       C  0.89287916  0.98151331  0.54932472    -0.01570
C1989       C  0.92435606  0.97249836  0.53252589     0.03420
C1990       C  0.95167514  0.00453431  0.52601871    -0.04450
C1991       C  0.95128096  0.04299914  0.54053157    -0.01550
C1992       C  0.92022221  0.05137976  0.55795306     0.03420
C1993       C  0.86194314  0.95054586  0.55293349     0.38070
C1994       C  0.97816430  0.07684198  0.53455239     0.38060
C1995       C  0.91844602  0.09125057  0.57227604     0.36480
C1996       C  0.92584847  0.43133561  0.52005830     0.36480
N1997       N  0.91680112  0.12274853  0.58400446    -0.38340
N1998       N  0.92526415  0.39846125  0.50997164    -0.38340
N1999       N  0.49899148  0.10412212  0.52904321    -0.37780
N2000       N  0.83724751  0.92590566  0.55564021    -0.37780
C2001       C  0.61081454  0.46125227  0.45578647    -0.04450
C2002       C  0.59961285  0.44188392  0.47933070    -0.01570
C2003       C  0.56086295  0.44499242  0.48796168     0.03420
C2004       C  0.53659341  0.47741239  0.47879181    -0.04450
C2005       C  0.54546875  0.49532599  0.45475751    -0.01550
C2006       C  0.58225490  0.48627984  0.44281793     0.03420
C2007       C  0.62772396  0.42486063  0.49740457     0.38070
C2008       C  0.51720940  0.02305534  0.44253536     0.38060
C2009       C  0.59090517  0.00464910  0.41804093     0.36480
C2010       C  0.54638001  0.41853101  0.50853951     0.36480
N2011       N  0.59755580  0.01954777  0.39827443    -0.38340
N2012       N  0.53224138  0.39795160  0.52429382    -0.38340
N2013       N  0.49482522  0.04519943  0.43255551    -0.37780
N2014       N  0.64943851  0.41178013  0.51248076    -0.37780
C2015       C  0.94711056  0.49449288  0.47759211    -0.04450
C2016       C  0.91782702  0.52634334  0.47315280    -0.01570
C2017       C  0.88580046  0.51852613  0.45673719     0.03420
C2018       C  0.88153939  0.47839445  0.44525389    -0.04450
C2019       C  0.91265727  0.44869435  0.44640609    -0.01550
C2020       C  0.94513964  0.45624820  0.46259585     0.03420
C2021       C  0.91684209  0.56552721  0.48788952     0.38070
C2022       C  0.91023758  0.40922404  0.43160132     0.38060
C2023       C  0.97268460  0.42158618  0.46574415     0.36480
C2024       C  0.85512843  0.55048876  0.45365835     0.36480
N2025       N  0.49308016  0.39224949  0.46773190    -0.38340
N2026       N  0.83078352  0.57602936  0.45120565    -0.38340
N2027       N  0.90833135  0.37791389  0.41971693    -0.37780
N2028       N  0.91310410  0.09616093  0.50020132    -0.37780
C2029       C  0.97373568  0.49976433  0.50097278     0.01450
C2030       C  0.51402938  0.00067276  0.49947946     0.01450
C2031       C  0.98312626  0.74381530  0.49709549     0.01450
C2032       C  0.52272709  0.75474554  0.49972666     0.01450
C2033       C  0.84203239  0.96386356  0.43752887     0.43350
N2034       N  0.78800029  0.95483565  0.41740347     0.02240
C2035       C  0.67515807  0.77459838  0.41577048    -0.05640
H2036       H  0.83720247  0.75061746  0.40279803     0.07730
C2037       C  0.82294597  0.83003211  0.32049156    -0.05990
Co2038     Co  0.75055567  0.87409570  0.43238255     0.74180
N2039       N  0.79610304  0.80109807  0.41138233    -0.25170
Co2040     Co  0.75219590  0.80048676  0.38291767     0.74070
C2041       C  0.83932894  0.78765985  0.32652589     0.43450
N2042       N  0.78842866  0.93567549  0.34180345     0.01850
N2043       N  0.79523420  0.80629797  0.35466269     0.01960
N2044       N  0.68174209  0.82252412  0.44777794    -0.46020
H2045       H  0.83309596  0.90466173  0.46170804     0.07710
N2046       N  0.79502018  0.83046453  0.42952564     0.02240
N2047       N  0.71085410  0.80070111  0.35344884     0.01980
C2048       C  0.67562084  0.77445402  0.32253425     0.43590
N2049       N  0.78567196  0.96167180  0.36182417    -0.24630
C2050       C  0.67623515  0.91731005  0.45151238    -0.05550
N2051       N  0.81876344  0.98045054  0.41916603    -0.45730
N2052       N  0.69155369  0.76643369  0.34571727    -0.45960
C2053       C  0.65077133  0.95242510  0.44451090     0.43360
N2054       N  0.71035064  0.82570013  0.43092260     0.02230
N2055       N  0.70123511  0.95729698  0.36061669    -0.24650
N2056       N  0.79042340  0.92271274  0.43327446    -0.25140
N2057       N  0.70313904  0.93061478  0.34069865     0.01870
H2058       H  0.67306550  0.01829957  0.36631263     0.07760
H2059       H  0.68339439  0.83630732  0.29925562     0.07790
N2060       N  0.70800488  0.79799497  0.41179641    -0.25190
N2061       N  0.79493085  0.83807481  0.33826485    -0.24800
N2062       N  0.70074959  0.94899674  0.41875516     0.02230
C2063       C  0.84849212  0.79619643  0.43773085     0.43630
C2064       C  0.81085608  0.99348599  0.35919673    -0.06050
N2065       N  0.70983323  0.83164458  0.33644327    -0.24800
H2066       H  0.82743679  0.84846785  0.30332835     0.07780
N2067       N  0.82506569  0.82864423  0.44523328    -0.46020
H2068       H  0.81398066  0.01928557  0.37288302     0.07770
C2069       C  0.66296525  0.98085052  0.32881414     0.43470
C2070       C  0.82296977  0.92640405  0.44726287    -0.05550
Co2071     Co  0.74335305  0.95639674  0.38988187     0.73820
N2072       N  0.81332218  0.95030049  0.32429859    -0.45740
C2073       C  0.65787480  0.79126755  0.44024898     0.43730
N2074       N  0.66782929  0.97086609  0.42371993    -0.45730
Co2075     Co  0.74901395  0.88408416  0.33869695     0.73890
C2076       C  0.68753953  0.81846095  0.31660020    -0.06060
C2077       C  0.82882479  0.77733052  0.41490125    -0.05620
N2078       N  0.70564726  0.91757668  0.43480407    -0.25150
N2079       N  0.82073952  0.77592950  0.34823175    -0.45910
H2080       H  0.66461014  0.74958718  0.40318831     0.07740
C2081       C  0.67646822  0.98931087  0.35502692    -0.06030
Cl2082     Cl  0.74815484  0.87866398  0.38554875    -0.49040
C2083       C  0.82877258  0.98700329  0.33400214     0.43500
H2084       H  0.67314304  0.89359627  0.46597790     0.07710
N2085       N  0.68166434  0.94436206  0.32112355    -0.45750
C2086       C  0.84994442  0.53822376  0.56750063     0.43350
N2087       N  0.79389812  0.54672256  0.58528301     0.02240
C2088       C  0.67634373  0.72446289  0.58041739    -0.05640
H2089       H  0.83952825  0.75064142  0.59360037     0.07730
C2090       C  0.80845481  0.68230413  0.68225886    -0.05990
Co2091     Co  0.75403596  0.62465158  0.56639920     0.74180
N2092       N  0.79767783  0.69995912  0.58651380    -0.25170
Co2093     Co  0.75091747  0.70226255  0.61411633     0.74070
C2094       C  0.82230764  0.72545905  0.67640986     0.43450
N2095       N  0.78590058  0.57233347  0.66046808     0.01850
N2096       N  0.78984003  0.69998357  0.64434183     0.01960
N2097       N  0.68233292  0.67276962  0.55032279    -0.46020
H2098       H  0.84070338  0.59427970  0.54062799     0.07710
N2099       N  0.79700675  0.66982155  0.56869028     0.02240
N2100       N  0.70596906  0.70308030  0.64208748     0.01980
C2101       C  0.66397155  0.72632243  0.67076317     0.43590
N2102       N  0.78620405  0.54286065  0.64209169    -0.24630
C2103       C  0.68179006  0.57791043  0.54689289    -0.05550
N2104       N  0.82582526  0.52225401  0.58554224    -0.45730
N2105       N  0.68412657  0.73654830  0.64913996    -0.45960
C2106       C  0.65721701  0.54251898  0.55440328     0.43360
N2107       N  0.71202549  0.67200581  0.56631835     0.02230
N2108       N  0.70260356  0.54595537  0.63751800    -0.24650
N2109       N  0.79607064  0.57720074  0.56821216    -0.25140
N2110       N  0.70130785  0.57344886  0.65694731     0.01870
H2111       H  0.67813411  0.48418706  0.63092014     0.07760
H2112       H  0.66826134  0.66218110  0.69209558     0.07790
N2113       N  0.70952377  0.70166726  0.58437365    -0.25190
N2114       N  0.78733683  0.66990676  0.66180692    -0.24800
N2115       N  0.70640089  0.54893601  0.58055121     0.02230
C2116       C  0.84946362  0.70407545  0.55902383     0.43630
C2117       C  0.80843841  0.50999739  0.64978844    -0.06050
N2118       N  0.70262891  0.67134726  0.65831076    -0.24800
H2119       H  0.80926513  0.66578873  0.70033391     0.07780
N2120       N  0.82660620  0.67132005  0.55235504    -0.46020
H2121       H  0.81087833  0.47952805  0.63994791     0.07770
C2122       C  0.66400181  0.52158199  0.66791505     0.43470
C2123       C  0.83015920  0.57364842  0.55555238    -0.05550
Co2124     Co  0.74717954  0.54542176  0.61104218     0.73820
N2125       N  0.80597600  0.56040394  0.68097878    -0.45740
C2126       C  0.65810575  0.70455007  0.55759513     0.43730
N2127       N  0.67424847  0.52606968  0.57584062    -0.45730
Co2128     Co  0.74423468  0.62170833  0.65969207     0.73890
C2129       C  0.67563372  0.68205621  0.67611520    -0.06060
C2130       C  0.83045779  0.72340300  0.58225065    -0.05620
N2131       N  0.71068620  0.57959561  0.56392117    -0.25150
N2132       N  0.80975325  0.73342502  0.65244010    -0.45910
H2133       H  0.66579350  0.75036112  0.59256358     0.07740
C2134       C  0.67908512  0.51329945  0.64223297    -0.06030
Cl2135     Cl  0.74914426  0.62366117  0.61314132    -0.49040
C2136       C  0.82206320  0.52177715  0.67550496     0.43500
H2137       H  0.67790098  0.60048608  0.53175889     0.07710
N2138       N  0.67895449  0.55936451  0.67596401    -0.45750
C2139       C  0.75490938  0.48926692  0.99876457     0.01450
C2140       C  0.71421189  0.48366255  0.99478893     0.01450
C2141       C  0.75651514  0.73868340  0.99741974     0.01450
C2142       C  0.71510997  0.74025987  0.99943633     0.01450
C2143       C  0.89613624  0.55325144  0.94629858     0.43350
N2144       N  0.94607816  0.56141176  0.92093045     0.02240
C2145       C  0.55834198  0.74198918  0.91091918    -0.05640
H2146       H  0.89418880  0.75641989  0.89427553     0.07730
C2147       C  0.91242509  0.67695244  0.81961731    -0.05990
Co2148     Co  0.98532215  0.64371348  0.93272407     0.74180
N2149       N  0.93867476  0.71389756  0.90914174    -0.25170
Co2150     Co  0.98243743  0.71117786  0.88109695     0.74070
C2151       C  0.89690191  0.72025725  0.82476994     0.43450
N2152       N  0.94441523  0.57358087  0.84398476     0.01850
N2153       N  0.93980704  0.70354708  0.85331237     0.01960
N2154       N  0.55605840  0.69746838  0.94452924    -0.46020
H2155       H  0.90776474  0.61714335  0.96665999     0.07710
N2156       N  0.93926106  0.68797194  0.92880730     0.02240
N2157       N  0.52383339  0.70703566  0.85198101     0.01980
C2158       C  0.55851861  0.72997611  0.82031633     0.43590
N2159       N  0.94681948  0.54868936  0.86419091    -0.24630
C2160       C  0.56257514  0.59875534  0.94965330    -0.05550
N2161       N  0.91650336  0.53532114  0.92621629    -0.45730
N2162       N  0.54315492  0.74033940  0.84350774    -0.45960
C2163       C  0.58681328  0.56201431  0.94112487     0.43360
N2164       N  0.52581853  0.69187168  0.92913114     0.02230
N2165       N  0.53000886  0.55084401  0.86067016    -0.24650
N2166       N  0.94551155  0.59537470  0.93601583    -0.25140
N2167       N  0.52872452  0.57721063  0.84104379     0.01870
H2168       H  0.55395750  0.48745367  0.86420248     0.07760
H2169       H  0.55005965  0.66651805  0.79790128     0.07790
N2170       N  0.52618991  0.71726370  0.90920388    -0.25190
N2171       N  0.93955672  0.67010362  0.83774659    -0.24800
N2172       N  0.53343274  0.56609871  0.91861224     0.02230
C2173       C  0.88229769  0.71855215  0.93086611     0.43630
C2174       C  0.92525541  0.51400266  0.86041291    -0.06050
N2175       N  0.52432910  0.67460800  0.83552049    -0.24800
H2176       H  0.90725136  0.65597704  0.80338608     0.07780
N2177       N  0.90596771  0.68952703  0.94212090    -0.46020
H2178       H  0.92505172  0.48649047  0.87267296     0.07770
C2179       C  0.56450588  0.52438135  0.82703248     0.43470
C2180       C  0.91553718  0.59303395  0.95249946    -0.05550
Co2181     Co  0.98931561  0.55612841  0.89145987     0.73820
N2182       N  0.92280771  0.55625539  0.82561217    -0.45740
C2183       C  0.57789135  0.72870421  0.93463869     0.43730
N2184       N  0.56600558  0.54337621  0.92189936    -0.45730
Co2185     Co  0.98428888  0.62380787  0.83930604     0.73890
C2186       C  0.54649263  0.68560754  0.81519960    -0.06060
C2187       C  0.90409653  0.73505937  0.90903463    -0.05620
N2188       N  0.03101405  0.59894289  0.93451407    -0.25150
N2189       N  0.91539297  0.73393551  0.84611506    -0.45910
H2190       H  0.56760535  0.76501911  0.89692651     0.07740
C2191       C  0.55193174  0.51670326  0.85357757    -0.06030
Cl2192     Cl  0.98561406  0.63359066  0.88599505    -0.49040
C2193       C  0.90982046  0.51873937  0.83474498     0.43500
H2194       H  0.56705793  0.62258732  0.96404262     0.07710
N2195       N  0.54808417  0.56204959  0.82058432    -0.45750
C2196       C  0.60816248  0.85689619  0.74605816     0.01450
C2197       C  0.61010370  0.90139446  0.74567494     0.01450
C2198       C  0.85716856  0.85513112  0.75309412     0.01450
C2199       C  0.85931396  0.89920572  0.75543905     0.01450
C2200       C  0.61311742  0.64528783  0.25141592     0.01450
C2201       C  0.62273296  0.60155167  0.24821145     0.01450
C2202       C  0.87362564  0.65101626  0.25287486     0.01450
C2203       C  0.87106834  0.60666472  0.25356993     0.01450
C2204       C  0.89179762  0.95303250  0.05642966     0.43350
N2205       N  0.94101141  0.94954420  0.08219323     0.02240
C2206       C  0.56490411  0.77533452  0.08713446    -0.05640
H2207       H  0.89790843  0.75447257  0.09936840     0.07730
C2208       C  0.91935789  0.82302428  0.18233100    -0.05990
Co2209     Co  0.98837563  0.87258764  0.06767772     0.74180
N2210       N  0.94275279  0.79945429  0.08826496    -0.25170
Co2211     Co  0.98630014  0.80058539  0.11701128     0.74070
C2212       C  0.90726718  0.77925606  0.17601794     0.43450
N2213       N  0.94062306  0.93251804  0.15940168     0.01850
N2214       N  0.94315730  0.80370660  0.14539892     0.01960
N2215       N  0.56386492  0.82357584  0.05541382    -0.46020
H2216       H  0.91312086  0.89412491  0.03396508     0.07710
N2217       N  0.94494023  0.82615843  0.06907742     0.02240
N2218       N  0.52710320  0.80265226  0.14667753     0.01980
C2219       C  0.55585199  0.77537419  0.17980031     0.43590
N2220       N  0.94027500  0.95868863  0.13976283    -0.24630
C2221       C  0.56007608  0.92508626  0.05159931    -0.05550
N2222       N  0.90825987  0.97177402  0.07753835    -0.45730
N2223       N  0.54432444  0.76774828  0.15540728    -0.45960
C2224       C  0.58069265  0.96220611  0.06144488     0.43360
N2225       N  0.53221733  0.82685529  0.07033678     0.02230
N2226       N  0.52486504  0.96048116  0.14040508    -0.24650
N2227       N  0.94555079  0.91765714  0.06580195    -0.25140
N2228       N  0.52634645  0.93389561  0.15978015     0.01870
H2229       H  0.55278893  0.01863623  0.13163281     0.07760
H2230       H  0.54143349  0.83635047  0.20362552     0.07790
N2231       N  0.53182600  0.79912058  0.08908977    -0.25190
N2232       N  0.94226658  0.83504975  0.16265137    -0.24800
N2233       N  0.52894990  0.95226875  0.08416729     0.02230
C2234       C  0.88908524  0.79508335  0.06309201     0.43630
C2235       C  0.91534345  0.99091007  0.14495216    -0.06050
N2236       N  0.52588743  0.83394602  0.16399189    -0.24800
H2237       H  0.91678186  0.83986795  0.20054903     0.07780
N2238       N  0.91406819  0.82415221  0.05375918    -0.46020
H2239       H  0.91280820  0.01953428  0.13374749     0.07770
C2240       C  0.56822923  0.98397944  0.16927574     0.43470
C2241       C  0.91670728  0.91763837  0.04902916    -0.05550
Co2242     Co  0.98345962  0.95609103  0.11145967     0.73820
N2243       N  0.91805736  0.94681987  0.17861752    -0.45740
C2244       C  0.58631018  0.79182859  0.06470945     0.43730
N2245       N  0.55940594  0.97823259  0.08145101    -0.45730
Co2246     Co  0.98400901  0.88420538  0.16183822     0.73890
C2247       C  0.54374503  0.81997588  0.18529941    -0.06060
C2248       C  0.90853428  0.77796474  0.08608323    -0.05620
N2249       N  0.52962734  0.92045042  0.06739601    -0.25150
N2250       N  0.92323679  0.77006856  0.15282769    -0.45910
H2251       H  0.57364264  0.75074091  0.10032394     0.07740
C2252       C  0.55027364  0.99207293  0.14431103    -0.06030
Cl2253     Cl  0.98571849  0.87836368  0.11473333    -0.49040
C2254       C  0.90061552  0.98342849  0.17090959     0.43500
H2255       H  0.56652797  0.90484431  0.03514906     0.07710
N2256       N  0.55127868  0.94735416  0.17767662    -0.45750
C2257       C  0.87631570  0.58010503  0.22922278    -0.04450
C2258       C  0.91284916  0.57863810  0.21622177    -0.01570
C2259       C  0.91990580  0.04855197  0.19629493     0.03420
C2260       C  0.89092539  0.01852462  0.18952688    -0.04450
C2261       C  0.85397795  0.52061837  0.20178603    -0.01550
C2262       C  0.84673798  0.55094734  0.22164545     0.03420
C2263       C  0.94529989  0.60187181  0.22707259     0.38070
C2264       C  0.82339351  0.99143818  0.19395687     0.38060
C2265       C  0.80904469  0.55115958  0.23477664     0.36480
C2266       C  0.95791649  0.04687780  0.18366450     0.36480
N2267       N  0.77893831  0.55062608  0.24519899    -0.38340
N2268       N  0.98782567  0.04515473  0.17303226    -0.38340
N2269       N  0.79885700  0.96838434  0.18760442    -0.37780
N2270       N  0.97034158  0.61915721  0.23768458    -0.37780
C2271       C  0.90007581  0.74445296  0.19468765    -0.04450
C2272       C  0.87187066  0.71291869  0.18937677    -0.01570
C2273       C  0.86545884  0.67913472  0.20668511     0.03420
C2274       C  0.88760948  0.67626248  0.22972150    -0.04450
C2275       C  0.91873924  0.70583620  0.23334780    -0.01550
C2276       C  0.92445930  0.73966249  0.21628874     0.03420
C2277       C  0.84818640  0.71610800  0.16638052     0.38070
C2278       C  0.94599043  0.70224769  0.25459610     0.38060
C2279       C  0.95616324  0.76922757  0.22128215     0.36480
C2280       C  0.83425358  0.64952083  0.20097920     0.36480
N2281       N  0.98129396  0.79250001  0.22608375    -0.38340
N2282       N  0.80867121  0.62719192  0.19553460    -0.38340
N2283       N  0.96943967  0.70095023  0.27060746    -0.37780
N2284       N  0.82916809  0.71832220  0.14808287    -0.37780
C2285       C  0.62249592  0.57182933  0.22375949    -0.04450
C2286       C  0.61958903  0.58457909  0.19782245    -0.01570
C2287       C  0.60296095  0.55630076  0.17906571     0.03420
C2288       C  0.59321267  0.01355441  0.18571541    -0.04450
C2289       C  0.60983245  0.99839804  0.20863274    -0.01550
C2290       C  0.62802554  0.52683110  0.22596557     0.03420
C2291       C  0.63471238  0.62507643  0.18967353     0.38070
C2292       C  0.61211101  0.95309030  0.21347826     0.38060
C2293       C  0.66059244  0.50961962  0.24051479     0.36480
C2294       C  0.59620777  0.57249842  0.15355016     0.36480
N2295       N  0.68707278  0.49439293  0.25092979    -0.38340
N2296       N  0.59152676  0.58703583  0.13345363    -0.38340
N2297       N  0.61437796  0.91702741  0.21741530    -0.37780
N2298       N  0.64591150  0.65679181  0.18148247    -0.37780
C2299       C  0.56477945  0.74056919  0.19897138    -0.04450
C2300       C  0.55390573  0.69702922  0.19486648    -0.01570
C2301       C  0.56430495  0.66510271  0.21312806     0.03420
C2302       C  0.58708490  0.67573512  0.23486488    -0.04450
C2303       C  0.58363902  0.71955627  0.24204081    -0.01550
C2304       C  0.57996532  0.75102908  0.22338029     0.03420
C2305       C  0.53094987  0.68473565  0.17265732     0.38070
C2306       C  0.57283847  0.73201717  0.26811262     0.38060
C2307       C  0.59190740  0.79374137  0.23030133     0.36480
C2308       C  0.54696010  0.62360754  0.21141830     0.36480
N2309       N  0.60195779  0.82741655  0.23646377    -0.38340
N2310       N  0.53376321  0.58991661  0.20999077    -0.38340
N2311       N  0.56286308  0.74302907  0.28848271    -0.37780
N2312       N  0.01245615  0.67465346  0.15502877    -0.37780
C2313       C  0.57641402  0.49089094  0.80755643    -0.04450
C2314       C  0.54785625  0.96722013  0.79402945    -0.01570
C2315       C  0.55913631  0.93317069  0.77725969     0.03420
C2316       C  0.59870368  0.92864006  0.76920153    -0.04450
C2317       C  0.62675361  0.95617968  0.78058894    -0.01550
C2318       C  0.61620183  0.48457342  0.80094285     0.03420
C2319       C  0.50818787  0.98373732  0.79307375     0.38070
C2320       C  0.66635777  0.95653255  0.77061330     0.38060
C2321       C  0.64604432  0.50938172  0.81390652     0.36480
C2322       C  0.52964896  0.90729848  0.76492342     0.36480
N2323       N  0.66984242  0.52912157  0.82431766    -0.38340
N2324       N  0.50737933  0.88667914  0.75376420    -0.38340
N2325       N  0.69751098  0.95736616  0.76178655    -0.37780
N2326       N  0.97750339  0.99928376  0.79091016    -0.37780
C2327       C  0.58870718  0.83225474  0.76776516    -0.04450
C2328       C  0.60369568  0.83161283  0.79325281    -0.01570
C2329       C  0.59293618  0.79874506  0.81030965     0.03420
C2330       C  0.56981504  0.76408345  0.80177463    -0.04450
C2331       C  0.55462439  0.76500938  0.77657026    -0.01550
C2332       C  0.56153521  0.80012126  0.76062461     0.03420
C2333       C  0.63442941  0.86033769  0.80135016     0.38070
C2334       C  0.53353976  0.72913228  0.76591910     0.38060
C2335       C  0.54219294  0.80138411  0.73581442     0.36480
C2336       C  0.60847119  0.79898208  0.83627775     0.36480
N2337       N  0.52663179  0.80157342  0.71609892    -0.38340
N2338       N  0.62083774  0.79927913  0.85696147    -0.38340
N2339       N  0.51804771  0.70042608  0.75638059    -0.37780
N2340       N  0.65976242  0.88138792  0.80881659    -0.37780
C2341       C  0.89483233  0.48429927  0.81796108    -0.04450
C2342       C  0.91498275  0.94504682  0.81471973    -0.01570
C2343       C  0.90434228  0.91656262  0.79461335     0.03420
C2344       C  0.86964177  0.92401503  0.78002107    -0.04450
C2345       C  0.84639569  0.96048770  0.78726278    -0.01550
C2346       C  0.86072960  0.49186544  0.80407752     0.03420
C2347       C  0.94859797  0.93510479  0.83074053     0.38070
C2348       C  0.80597265  0.96583686  0.77999967     0.38060
C2349       C  0.83936096  0.53191989  0.80775155     0.36480
C2350       C  0.93051528  0.88098631  0.78943499     0.36480
N2351       N  0.82247116  0.56380014  0.81049642    -0.38340
N2352       N  0.95236113  0.85272642  0.78728424    -0.38340
N2353       N  0.77330432  0.97402452  0.77654380    -0.37780
N2354       N  0.97548979  0.92699374  0.84334330    -0.37780
C2355       C  0.86971147  0.82377572  0.77348024    -0.04450
C2356       C  0.89537334  0.78985864  0.76588767    -0.01570
C2357       C  0.89932068  0.75326458  0.78086586     0.03420
C2358       C  0.88290443  0.75223763  0.80581668    -0.04450
C2359       C  0.85903701  0.78690785  0.81431820    -0.01550
C2360       C  0.85153386  0.82188801  0.79806776     0.03420
C2361       C  0.92041713  0.79321411  0.74334513     0.38070
C2362       C  0.84085520  0.78576723  0.83962128     0.38060
C2363       C  0.82399254  0.85464391  0.80657936     0.36480
C2364       C  0.91999988  0.71676939  0.76983626     0.36480
N2365       N  0.80158066  0.88009828  0.81378814    -0.38340
N2366       N  0.93539318  0.68760369  0.76024364    -0.38340
N2367       N  0.82631269  0.78475931  0.85977906    -0.37780
N2368       N  0.94151712  0.79439670  0.72585466    -0.37780
C2369       C  0.62448626  0.77671807  0.05279129    -0.04450
C2370       C  0.63132828  0.73326201  0.04810622    -0.01570
C2371       C  0.66461158  0.71980938  0.03358866     0.03420
C2372       C  0.69240153  0.74910220  0.02412281    -0.04450
C2373       C  0.68938598  0.79105510  0.03331362    -0.01550
C2374       C  0.65389379  0.80544941  0.04493851     0.03420
C2375       C  0.60272894  0.70223118  0.05650057     0.38070
C2376       C  0.72155290  0.81969447  0.02812671     0.38060
C2377       C  0.64446771  0.84943015  0.04330123     0.36480
C2378       C  0.67330862  0.67542933  0.03360704     0.36480
N2379       N  0.63575990  0.88399730  0.03923433    -0.38340
N2380       N  0.67633679  0.63975048  0.03779877    -0.38340
N2381       N  0.74820196  0.84046880  0.02278542    -0.37780
N2382       N  0.58007025  0.67735441  0.06311576    -0.37780
C2383       C  0.78940459  0.74469655  0.01865201    -0.04450
C2384       C  0.78540505  0.75155601  0.04592677    -0.01570
C2385       C  0.81737991  0.76903679  0.06062610     0.03420
C2386       C  0.85345175  0.77977780  0.04859983    -0.04450
C2387       C  0.85671986  0.77216329  0.02201980    -0.01550
C2388       C  0.82943317  0.74565537  0.01014148     0.03420
C2389       C  0.75368054  0.73309336  0.06036804     0.38070
C2390       C  0.89210992  0.78245632  0.00772860     0.38060
C2391       C  0.84802480  0.70624610  0.00178546     0.36480
C2392       C  0.81233512  0.77825383  0.08781952     0.36480
N2393       N  0.86478864  0.67516811  0.99632961    -0.38340
N2394       N  0.80805420  0.78634124  0.10943585    -0.38340
N2395       N  0.92014304  0.79056893  0.99614428    -0.37780
N2396       N  0.73004025  0.71817884  0.07346408    -0.37780
C2397       C  0.68728632  0.74099358  0.97578646    -0.04450
C2398       C  0.67832830  0.70380185  0.96079290    -0.01570
C2399       C  0.64543853  0.70272355  0.94417856     0.03420
C2400       C  0.61856915  0.73659303  0.94371292    -0.04450
C2401       C  0.62836486  0.77482676  0.95587993    -0.01550
C2402       C  0.66305906  0.77779687  0.97080319     0.03420
C2403       C  0.70034293  0.66477849  0.96167515     0.38070
C2404       C  0.60164076  0.81084278  0.95359768     0.38060
C2405       C  0.67254721  0.81982516  0.98015843     0.36480
C2406       C  0.63863278  0.66616573  0.92732522     0.36480
N2407       N  0.67746615  0.85485576  0.98637395    -0.38340
N2408       N  0.63354293  0.63748592  0.91359120    -0.38340
N2409       N  0.57995047  0.83913002  0.95154697    -0.37780
N2410       N  0.71369740  0.63113168  0.95864228    -0.37780
C2411       C  0.83989958  0.72425300  0.93755961    -0.04450
C2412       C  0.81819127  0.68833999  0.94439700    -0.01570
C2413       C  0.78859300  0.69244786  0.96316807     0.03420
C2414       C  0.77418376  0.73291203  0.97073698    -0.04450
C2415       C  0.78827418  0.76850421  0.95729581    -0.01550
C2416       C  0.82282357  0.76475959  0.94199014     0.03420
C2417       C  0.82760132  0.64721953  0.93307710     0.38070
C2418       C  0.76869844  0.80897903  0.96038318     0.38060
C2419       C  0.84177342  0.80237298  0.93229118     0.36480
C2420       C  0.78212410  0.65736079  0.97992192     0.36480
N2421       N  0.85689793  0.83243445  0.92449664    -0.38340
N2422       N  0.77639488  0.63125782  0.99469555    -0.38340
N2423       N  0.75239005  0.84127543  0.96184783    -0.37780
N2424       N  0.83420440  0.61497131  0.92293661    -0.37780
C2425       C  0.61730637  0.97914419  0.04974020    -0.04450
C2426       C  0.65431153  0.96471364  0.05853412    -0.01570
C2427       C  0.68631563  0.95749543  0.04074906     0.03420
C2428       C  0.68192825  0.96702311  0.01406431    -0.04450
C2429       C  0.64181247  0.97260243  0.00674188    -0.01550
C2430       C  0.61410981  0.98970832  0.02393405     0.03420
C2431       C  0.65740642  0.95105365  0.08501301     0.38070
C2432       C  0.62507131  0.44507257  0.98731158     0.38060
C2433       C  0.57762233  0.00742472  0.01422556     0.36480
C2434       C  0.71651019  0.92831424  0.04911831     0.36480
N2435       N  0.54863738  0.52179945  0.00653348    -0.38340
N2436       N  0.73958740  0.90567794  0.05798410    -0.38340
N2437       N  0.60965011  0.42314618  0.97251910    -0.37780
N2438       N  0.65974400  0.93973816  0.10603409    -0.37780
C2439       C  0.77906634  0.96662646  0.01874354    -0.04450
C2440       C  0.78405339  0.98378228  0.04422782    -0.01570
C2441       C  0.82007530  0.97779355  0.05744380     0.03420
C2442       C  0.85300050  0.96092274  0.04408320    -0.04450
C2443       C  0.84792525  0.94616461  0.01853188    -0.01550
C2444       C  0.81025616  0.94175094  0.00832107     0.03420
C2445       C  0.75401060  0.01044345  0.05642931     0.38070
C2446       C  0.88136027  0.94150188  0.00107280     0.38060
C2447       C  0.80672137  0.92038026  0.98357718     0.36480
C2448       C  0.82369914  0.99155244  0.08403761     0.36480
N2449       N  0.80698872  0.90421859  0.96347559    -0.38340
N2450       N  0.82639895  0.00254512  0.10528416    -0.38340
N2451       N  0.90769137  0.93824912  0.98695969    -0.37780
N2452       N  0.73077868  0.03161917  0.06692412    -0.37780
C2453       C  0.62671727  0.54675817  0.95056529    -0.04450
C2454       C  0.64483265  0.50943142  0.93974285    -0.01570
C2455       C  0.67671810  0.48931887  0.95233634     0.03420
C2456       C  0.69486807  0.50922003  0.97371233    -0.04450
C2457       C  0.68174524  0.54993762  0.98112497    -0.01550
C2458       C  0.64667129  0.56744058  0.97121686     0.03420
C2459       C  0.62945834  0.98914911  0.91672883     0.38070
C2460       C  0.70187294  0.56961132  0.00239482     0.38060
C2461       C  0.63092903  0.60502387  0.98402477     0.36480
C2462       C  0.68507557  0.94485223  0.94635636     0.36480
N2463       N  0.61909058  0.63495688  0.99484905    -0.38340
N2464       N  0.69076958  0.90935603  0.94126291    -0.38340
N2465       N  0.72077470  0.58067656  0.01948893    -0.37780
N2466       N  0.61772984  0.97255731  0.89834635    -0.37780
C2467       C  0.85817048  0.53866611  0.95819796    -0.04450
C2468       C  0.84999856  0.54834700  0.98415897    -0.01570
C2469       C  0.81235237  0.54151518  0.99481873     0.03420
C2470       C  0.78341458  0.51617039  0.98178730    -0.04450
C2471       C  0.79244644  0.50644019  0.95524218    -0.01550
C2472       C  0.82854089  0.51921581  0.94358689     0.03420
C2473       C  0.88136614  0.56270366  0.00098908     0.38070
C2474       C  0.76818260  0.48056494  0.93891474     0.38060
C2475       C  0.83551867  0.51138388  0.91627714     0.36480
C2476       C  0.80537462  0.56114683  0.01982834     0.36480
N2477       N  0.84072475  0.50511810  0.89452927    -0.38340
N2478       N  0.80269163  0.57939949  0.03928103    -0.38340
N2479       N  0.75459527  0.46051651  0.92247197    -0.37780
N2480       N  0.90612336  0.57378965  0.01462102    -0.37780
C2481       C  0.64952729  0.48846739  0.68566293    -0.04450
C2482       C  0.67004368  0.94959543  0.68898822    -0.01570
C2483       C  0.65849639  0.92109760  0.70845819     0.03420
C2484       C  0.62273205  0.92794672  0.72248737    -0.04450
C2485       C  0.59985237  0.96466613  0.71584504    -0.01550
C2486       C  0.61463272  0.49582110  0.69926861     0.03420
C2487       C  0.70435954  0.93936089  0.67319577     0.38070
C2488       C  0.55962141  0.97067240  0.72413562     0.38060
C2489       C  0.59282729  0.53523080  0.69534015     0.36480
C2490       C  0.68432023  0.88531115  0.71310398     0.36480
N2491       N  0.57556703  0.56662548  0.69227884    -0.38340
N2492       N  0.70535204  0.85632889  0.71463752    -0.38340
N2493       N  0.52724305  0.97873006  0.72914175    -0.37780
N2494       N  0.73174070  0.93086254  0.66076862    -0.37780
C2495       C  0.64815853  0.75953646  0.68965862    -0.04450
C2496       C  0.65473286  0.75608700  0.71645516    -0.01570
C2497       C  0.64765220  0.79106465  0.73309895     0.03420
C2498       C  0.62453273  0.82647459  0.72525807    -0.04450
C2499       C  0.61396208  0.82801563  0.69889082    -0.01550
C2500       C  0.62905710  0.79712205  0.68104212     0.03420
C2501       C  0.66757248  0.71675479  0.72810219     0.38070
C2502       C  0.58654478  0.85997317  0.68992855     0.38060
C2503       C  0.62477890  0.80470061  0.65380415     0.36480
C2504       C  0.66596143  0.79028579  0.75823617     0.36480
N2505       N  0.62205591  0.81228106  0.63218239    -0.38340
N2506       N  0.68139814  0.78774019  0.77792235    -0.38340
N2507       N  0.56431513  0.88487360  0.68240805    -0.37780
N2508       N  0.67642154  0.68595316  0.73865522    -0.37780
C2509       C  0.85028316  0.92742643  0.73275900    -0.04450
C2510       C  0.88000593  0.95345370  0.72224066    -0.01570
C2511       C  0.87143075  0.98206481  0.70224983     0.03420
C2512       C  0.83215033  0.49038461  0.69567548    -0.04450
C2513       C  0.80209040  0.46891403  0.70883947    -0.01550
C2514       C  0.81121404  0.93420767  0.72478520     0.03420
C2515       C  0.91932342  0.95149442  0.73235630     0.38070
C2516       C  0.76333036  0.48801783  0.71012819     0.38580
C2517       C  0.78017302  0.91024481  0.73660830     0.36480
C2518       C  0.90281479  0.00448915  0.68940506     0.36480
N2519       N  0.75650341  0.89228838  0.74804830    -0.38340
N2520       N  0.92791772  0.02220493  0.67908388    -0.38340
N2521       N  0.73342722  0.50546091  0.71240665    -0.37780
N2522       N  0.95056934  0.95035571  0.74079760    -0.37780
C2523       C  0.84067162  0.83189479  0.72966239    -0.04450
C2524       C  0.81087735  0.80147915  0.73419435    -0.01570
C2525       C  0.80635209  0.76586639  0.71778483     0.03420
C2526       C  0.82886631  0.76159716  0.69497155    -0.04450
C2527       C  0.85462156  0.79485627  0.68842900    -0.01550
C2528       C  0.86103850  0.82945872  0.70569701     0.03420
C2529       C  0.78591183  0.80492345  0.75685342     0.38070
C2530       C  0.87670492  0.79213346  0.66447213     0.38060
C2531       C  0.89199692  0.85891253  0.69943420     0.36480
C2532       C  0.77909780  0.73315773  0.72533791     0.36480
N2533       N  0.91769948  0.88031384  0.69311930    -0.38340
N2534       N  0.75819509  0.70673839  0.73211850    -0.38340
N2535       N  0.89437356  0.79022636  0.64540452    -0.37780
N2536       N  0.76542032  0.80657583  0.77467456    -0.37780
C2537       C  0.63109307  0.57717091  0.27272444    -0.04450
C2538       C  0.60232329  0.54906434  0.28256595    -0.01570
C2539       C  0.61240134  0.01794227  0.30097856     0.03420
C2540       C  0.65103299  0.01520257  0.31046518    -0.04450
C2541       C  0.67897013  0.54497628  0.30189374    -0.01550
C2542       C  0.66939216  0.57527161  0.28295152     0.03420
C2543       C  0.56269965  0.55069775  0.27260346     0.38070
C2544       C  0.71880883  0.54121890  0.31069845     0.38060
C2545       C  0.70003340  0.60012521  0.27118424     0.36480
C2546       C  0.58340260  0.98757191  0.30937421     0.36480
N2547       N  0.72378768  0.61988481  0.26094108    -0.38340
N2548       N  0.56029692  0.96315200  0.31594288    -0.38340
N2549       N  0.75047069  0.53654550  0.31790845    -0.37780
N2550       N  0.53102284  0.55200749  0.26472776    -0.37780
C2551       C  0.66143172  0.73907298  0.30485472    -0.04450
C2552       C  0.67124136  0.73760701  0.27833493    -0.01570
C2553       C  0.66295268  0.70116708  0.26317019     0.03420
C2554       C  0.63599905  0.67029341  0.27185199    -0.04450
C2555       C  0.62447814  0.67230071  0.29813767    -0.01550
C2556       C  0.63955568  0.70451665  0.31481253     0.03420
C2557       C  0.68529630  0.77476620  0.26512594     0.38070
C2558       C  0.59335267  0.64534515  0.30749512     0.38060
C2559       C  0.62909280  0.70392314  0.34187235     0.36480
C2560       C  0.67924927  0.69815086  0.23738302     0.36480
N2561       N  0.62073848  0.70282467  0.36345233    -0.38340
N2562       N  0.69372003  0.69710873  0.21721097    -0.38340
N2563       N  0.56809236  0.62486561  0.31548594    -0.37780
N2564       N  0.69454394  0.80391333  0.25322460    -0.37780
C2565       C  0.86526468  0.58000095  0.27787150    -0.04450
C2566       C  0.88626910  0.54036719  0.28054287    -0.01570
C2567       C  0.87358320  0.00959380  0.29825325     0.03420
C2568       C  0.84646008  0.02079430  0.31762339    -0.04450
C2569       C  0.83358538  0.56373873  0.31913324    -0.01550
C2570       C  0.83706857  0.58984652  0.29743614     0.03420
C2571       C  0.92126711  0.52969373  0.26575960     0.38070
C2572       C  0.81534416  0.58180564  0.34217043     0.38060
C2573       C  0.80736689  0.62263504  0.29510902     0.36480
C2574       C  0.88954344  0.96654598  0.29698746     0.36480
N2575       N  0.78229070  0.64772735  0.29556840    -0.38340
N2576       N  0.90203300  0.93219724  0.29580670    -0.38340
N2577       N  0.80105925  0.59757770  0.36022817    -0.37780
N2578       N  0.94939913  0.51852657  0.25491121    -0.37780
C2579       C  0.86178032  0.68112799  0.27447335    -0.04450
C2580       C  0.83116623  0.71090531  0.26974023    -0.01570
C2581       C  0.82536128  0.74661999  0.28588136     0.03420
C2582       C  0.85006290  0.75390017  0.30713617    -0.04450
C2583       C  0.88041041  0.72420091  0.31212847    -0.01550
C2584       C  0.88490287  0.68679091  0.29676784     0.03420
C2585       C  0.80283932  0.70317002  0.24951961     0.38070
C2586       C  0.90974567  0.73458203  0.33116174     0.38060
C2587       C  0.91387048  0.65488212  0.30362797     0.36480
C2588       C  0.79367232  0.77602312  0.28031398     0.36480
N2589       N  0.93699204  0.62946416  0.30921207    -0.38340
N2590       N  0.76923214  0.80058193  0.27598853    -0.38340
N2591       N  0.93437293  0.74366018  0.34539324    -0.37780
N2592       N  0.77883478  0.69814121  0.23416212    -0.37780
C2593       C  0.54907625  0.73068046  0.51757774    -0.04450
C2594       C  0.57862545  0.70472029  0.50607562    -0.01570
C2595       C  0.61459848  0.69814064  0.51867318     0.03420
C2596       C  0.61967867  0.71210676  0.54453777    -0.04450
C2597       C  0.58764661  0.73197794  0.55737134    -0.01550
C2598       C  0.55424218  0.74478189  0.54339547     0.03420
C2599       C  0.57526711  0.69131438  0.47935740     0.38070
C2600       C  0.58752485  0.73712080  0.58506252     0.38060
C2601       C  0.52676618  0.77482507  0.55535074     0.36480
C2602       C  0.64726062  0.68045944  0.50372870     0.36480
N2603       N  0.50575537  0.79891509  0.56551637    -0.38340
N2604       N  0.67319197  0.66694236  0.49153879    -0.38340
N2605       N  0.58626852  0.73983071  0.60725609    -0.37780
N2606       N  0.57446573  0.68133063  0.45787801    -0.37780
C2607       C  0.95837447  0.71297197  0.51411408    -0.04450
C2608       C  0.92231351  0.69831055  0.50359829    -0.01570
C2609       C  0.88665385  0.70312825  0.51735773     0.03420
C2610       C  0.88651506  0.71265693  0.54402210    -0.04450
C2611       C  0.92322111  0.71793738  0.55606401    -0.01550
C2612       C  0.95883588  0.71379477  0.54153924     0.03420
C2613       C  0.92127131  0.67750818  0.47859922     0.38070
C2614       C  0.92494401  0.72202353  0.58382847     0.38060
C2615       C  0.98942788  0.69017491  0.55434196     0.36480
C2616       C  0.84984775  0.69977730  0.50346528     0.36480
N2617       N  0.01259215  0.67085727  0.56562060    -0.38340
N2618       N  0.82055075  0.69759180  0.49236099    -0.38340
N2619       N  0.92672253  0.72479437  0.60599788    -0.37780
N2620       N  0.91863829  0.65986991  0.45898851    -0.37780
C2621       C  0.61968835  0.78517303  0.45434572    -0.04450
C2622       C  0.58335205  0.78186396  0.44157796    -0.01570
C2623       C  0.54727257  0.78556979  0.45566918     0.03420
C2624       C  0.54699745  0.78652017  0.48312697    -0.04450
C2625       C  0.58275438  0.80149500  0.49399570    -0.01550
C2626       C  0.61875574  0.79509492  0.48096182     0.03420
C2627       C  0.58267160  0.77996186  0.41371142     0.38070
C2628       C  0.58401766  0.82112117  0.51931120     0.38060
C2629       C  0.65499532  0.79755550  0.49561767     0.36480
C2630       C  0.51592847  0.80692018  0.44223274     0.36480
N2631       N  0.68366512  0.79934893  0.50742396    -0.38340
N2632       N  0.49229949  0.82439608  0.43030492    -0.38340
N2633       N  0.58799746  0.83679315  0.53940226    -0.37780
N2634       N  0.58172297  0.77895501  0.39147342    -0.37780
C2635       C  0.88665084  0.78651688  0.45123633    -0.04450
C2636       C  0.89351401  0.80391529  0.47632656    -0.01570
C2637       C  0.92860873  0.79491235  0.48953026     0.03420
C2638       C  0.95720916  0.76732023  0.47867438    -0.04450
C2639       C  0.95133243  0.75103839  0.45344564    -0.01550
C2640       C  0.91653443  0.76070969  0.43981812     0.03420
C2641       C  0.86322162  0.82771777  0.49030943     0.38070
C2642       C  0.97940315  0.72079009  0.44223166     0.38060
C2643       C  0.91100751  0.74074465  0.41491695     0.36480
C2644       C  0.93249422  0.80856846  0.51621595     0.36480
N2645       N  0.90736622  0.72310591  0.39543029    -0.38340
N2646       N  0.93461740  0.81908466  0.53756815    -0.38340
N2647       N  0.00077625  0.69644925  0.43263919    -0.37780
N2648       N  0.83940470  0.84644289  0.50187462    -0.37780
C2649       C  0.61787361  0.53206831  0.54251987    -0.04450
C2650       C  0.58771362  0.51013044  0.55575144    -0.01570
C2651       C  0.55081543  0.50220194  0.54364542     0.03420
C2652       C  0.54233357  0.51982044  0.51916576    -0.04450
C2653       C  0.57022651  0.54779443  0.50882948    -0.01550
C2654       C  0.60888632  0.54798315  0.51784401     0.03420
C2655       C  0.59478508  0.99427561  0.58135050     0.38070
C2656       C  0.55961104  0.57502680  0.48769649     0.38060
C2657       C  0.63945398  0.55890099  0.49958972     0.36480
C2658       C  0.52218520  0.97653471  0.55682965     0.36480
N2659       N  0.66343364  0.56684666  0.48456506    -0.38340
N2660       N  0.49997388  0.95599674  0.56800914    -0.38340
N2661       N  0.55077560  0.59706137  0.47105644    -0.37780
N2662       N  0.60017354  0.98150014  0.60180628    -0.37780
C2663       C  0.88917663  0.52230036  0.56018809    -0.04450
C2664       C  0.89288389  0.48151827  0.54932313    -0.01570
C2665       C  0.92436223  0.47250202  0.53252590     0.03420
C2666       C  0.95168054  0.50453808  0.52601809    -0.04450
C2667       C  0.95128581  0.54300403  0.54052978    -0.01550
C2668       C  0.92022542  0.55138626  0.55794971     0.03420
C2669       C  0.86194817  0.45055052  0.55293201     0.38070
C2670       C  0.97816972  0.57684630  0.53455005     0.38060
C2671       C  0.91844760  0.59125856  0.57227107     0.36480
C2672       C  0.92583945  0.93133355  0.52005628     0.36480
N2673       N  0.91680143  0.62275779  0.58399819    -0.38340
N2674       N  0.92525175  0.89846052  0.50996813    -0.38340
N2675       N  0.49899767  0.60412570  0.52904061    -0.37780
N2676       N  0.83725275  0.42591007  0.55563879    -0.37780
C2677       C  0.61081177  0.96125177  0.45578685    -0.04450
C2678       C  0.59961042  0.94188384  0.47933127    -0.01570
C2679       C  0.56086059  0.94499236  0.48796253     0.03420
C2680       C  0.53659049  0.97741182  0.47879253    -0.04450
C2681       C  0.54546585  0.99532544  0.45475818    -0.01550
C2682       C  0.58225191  0.98627919  0.44281843     0.03420
C2683       C  0.62772188  0.92486058  0.49740491     0.38070
C2684       C  0.51721266  0.52305676  0.44253503     0.38060
C2685       C  0.59090859  0.50465044  0.41804069     0.36480
C2686       C  0.54637812  0.91853071  0.50854038     0.36480
N2687       N  0.59755958  0.51954975  0.39827442    -0.38340
N2688       N  0.53224014  0.89795080  0.52429471    -0.38340
N2689       N  0.49482873  0.54520167  0.43255559    -0.37780
N2690       N  0.64943676  0.91178010  0.51248090    -0.37780
C2691       C  0.94710799  0.99449104  0.47759236    -0.04450
C2692       C  0.91782623  0.02634277  0.47315232    -0.01570
C2693       C  0.88579939  0.01852627  0.45673687     0.03420
C2694       C  0.88153724  0.97839436  0.44525395    -0.04450
C2695       C  0.91265455  0.94869345  0.44640623    -0.01550
C2696       C  0.94513679  0.95624654  0.46259617     0.03420
C2697       C  0.91684447  0.06552788  0.48788781     0.38070
C2698       C  0.91023432  0.90922315  0.43160153     0.38060
C2699       C  0.97268121  0.92158422  0.46574512     0.36480
C2700       C  0.85512843  0.05048993  0.45365772     0.36480
N2701       N  0.49307658  0.89224767  0.46773396    -0.38340
N2702       N  0.83078437  0.07603139  0.45120474    -0.38340
N2703       N  0.90832769  0.87791300  0.41971718    -0.37780
N2704       N  0.91309787  0.59615884  0.50020391    -0.37780
loop_ 
_geom_bond_atom_site_label_1 
_geom_bond_atom_site_label_2 
_geom_bond_distance 
_geom_bond_site_symmetry_2 
_ccdc_geom_bond_type 
C1          C638   1.504   1_565  S
C1         C1339   1.529       .  S
C1         C2030   1.374   1_565  D
C2          C652   1.496       .  S
C2         C1300   1.531       .  S
C2         C2029   1.374   1_455  D
C3          C579   1.569       .  S
C3          C610   1.503       .  S
C3         C1356   1.401       .  D
C4          C565   1.502       .  S
C4          C596   1.567       .  S
C4         C1355   1.401   1_455  D
C5           N23   1.352       .  A
C5           C42   1.446       .  S
C5          C666   1.480       .  S
N6           N23   1.329       .  A
N6           N28   1.315       .  A
N6          Co43   2.095       .  S
C7           N32   1.360       .  A
C7           C45   1.486       .  S
C7           H52   1.081       .  S
H8           C49   1.077       .  S
C9           N33   1.344       .  A
C9           C13   1.478       .  S
C9           H38   1.082       .  S
Co10         N28   2.053       .  S
Co10         N18   2.036       .  S
Co10         N50   2.043       .  S
Co10         N26   2.056       .  S
Co10        Cl54   2.444       .  S
N11          C49   1.350       .  A
N11          N18   1.311       .  A
N11         Co12   2.110       .  S
Co12         N15   2.079       .  S
Co12         N32   2.121       .  S
Co12         N19   2.087       .  S
Co12        Cl54   2.462       .  S
C13          N51   1.348       .  A
C13         C554   1.495       .  S
N14          N21   1.317       .  A
N14          N44   1.329       .  A
N14         Co47   2.119       .  S
N15          N33   1.323       .  A
N15          N51   1.322       .  A
N16          C45   1.336       .  A
N16          N26   1.311       .  A
H17          C42   1.079       .  S
N18          N39   1.314       .  A
N19          N37   1.324       .  A
N19          N24   1.326       .  A
C20          N24   1.351       .  A
C20          C48   1.481       .  S
C20         C523   1.517       .  S
N21          C36   1.331       .  A
N21         Co43   2.053       .  S
C22          N50   1.321       .  A
C22          C25   1.449       .  S
C22          H56   1.072       .  S
C25          N46   1.363       .  A
C25         C649   1.500       .  S
N26          N32   1.316       .  A
N27          C53   1.343       .  A
N27          N29   1.324       .  A
N27         Co43   2.098       .  S
N28          C42   1.334       .  A
N29          N57   1.332       .  A
N29         Co47   2.131       .  S
H30          C53   1.082       .  S
H31          C48   1.078       .  S
N33         Co47   2.119       .  S
N34          N46   1.331       .  A
N34          N50   1.312       .  A
N34         Co43   2.097       .  S
C35          N39   1.341       .  A
C35          C49   1.485       .  S
C35         C607   1.511       .  S
C36          C55   1.453       .  S
C36          H40   1.078       .  S
N37          C48   1.347       .  A
N37         Co47   2.132       .  S
C41          N57   1.360       .  A
C41          C53   1.463       .  S
C41         C512   1.506       .  S
Co43        Cl54   2.454       .  S
N44          C55   1.364       .  A
C45         C593   1.503       .  S
Co47        Cl54   2.445       .  S
C55         C540   1.499       .  S
C58          N76   1.348       .  A
C58          C95   1.446       .  S
C58         C635   1.468       .  S
N59          N76   1.326       .  A
N59          N81   1.318       .  A
N59         Co96   2.074       .  S
C60          N85   1.350       .  A
C60          C98   1.477       .  S
C60         H105   1.081       .  S
H61         C102   1.081       .  S
C62          N86   1.343       .  A
C62          C66   1.475       .  S
C62          H91   1.081       .  S
Co63         N81   2.061       .  S
Co63         N71   2.050       .  S
Co63        N103   2.058       .  S
Co63         N79   2.055       .  S
Co63       Cl107   2.436       .  S
N64         C102   1.361       .  A
N64          N71   1.316       .  A
N64         Co65   2.136       .  S
Co65         N68   2.064       .  S
Co65         N85   2.099       .  S
Co65         N72   2.104       .  S
Co65       Cl107   2.472       .  S
C66         N104   1.346       .  A
C66         C498   1.499       .  S
N67          N74   1.321       .  A
N67          N97   1.327       .  A
N67        Co100   2.094       .  S
N68          N86   1.323       .  A
N68         N104   1.321       .  A
N69          C98   1.338       .  A
N69          N79   1.313       .  A
H70          C95   1.080       .  S
N71          N92   1.315       .  A
N72          N90   1.321       .  A
N72          N77   1.329       .  A
C73          N77   1.357       .  A
C73         C101   1.474       .  S
C73         C467   1.516       .  S
N74          C89   1.342       .  A
N74         Co96   2.099       .  S
C75         N103   1.328       .  A
C75          C78   1.454       .  S
C75         H109   1.075       .  S
C78          N99   1.366       .  A
C78         C621   1.515       .  S
N79          N85   1.316       .  A
N80         C106   1.332       .  A
N80          N82   1.321       .  A
N80         Co96   2.042       .  S
N81          C95   1.333       .  A
N82         N110   1.327       .  A
N82        Co100   2.120       .  S
H83         C106   1.082   1_565  S
H84         C101   1.076       .  S
N86        Co100   2.121       .  S
N87          N99   1.337       .  A
N87         N103   1.312       .  A
N87         Co96   2.117       .  S
C88          N92   1.339       .  A
C88         C102   1.486       .  S
C88         C582   1.507       .  S
C89         C108   1.462       .  S
C89          H93   1.082   1_545  S
N90         C101   1.338       .  A
N90        Co100   2.100       .  S
C94         N110   1.358       .  A
C94         C106   1.447       .  S
C94         C453   1.486   1_545  S
Co96       Cl107   2.462       .  S
N97         C108   1.353       .  A
C98         C568   1.496       .  S
Co100      Cl107   2.427       .  S
C108        C484   1.490   1_545  S
C111        C442   1.569   1_565  S
C111       C1087   1.511   1_556  S
C111        C112   1.414       .  D
C112        C428   1.518   1_565  S
C112       C1076   1.580   1_556  S
C113        C355   1.588   1_556  S
C113        C386   1.517       .  S
C113        C114   1.413       .  D
C114        C344   1.515   1_556  S
C114        C369   1.557       .  S
C115        N133   1.362       .  A
C115        C152   1.453       .  S
C115        C439   1.507       .  S
N116        N133   1.334       .  A
N116        N138   1.316       .  A
N116       Co153   2.122       .  S
C117        N142   1.351       .  A
C117        C155   1.469       .  S
C117        H162   1.081       .  S
H118        C159   1.080       .  S
C119        N143   1.342       .  A
C119        C123   1.476       .  S
C119        H148   1.080       .  S
Co120       N138   2.053       .  S
Co120       N128   2.099       .  S
Co120       N160   2.091       .  S
Co120      N1488   2.066       .  S
Co120      Cl164   2.446       .  S
N121        C159   1.347       .  A
N121        N128   1.317       .  A
N121       Co122   2.078       .  S
Co122       N125   2.067       .  S
Co122      N1494   2.101       .  S
Co122      N1481   2.064       .  S
Co122      Cl164   2.457       .  S
C123        N161   1.347       .  A
C123        C330   1.495       .  S
N124        N131   1.321       .  A
N124        N154   1.324       .  A
N124       Co157   2.107       .  S
N125        N143   1.318       .  A
N125        N161   1.320       .  A
N126        C155   1.343       .  A
N126        N136   1.319       .  A
H127        C152   1.079       .  S
N128        N149   1.324       .  A
N129        N147   1.322       .  A
N129        N134   1.321       .  A
N129      Co1474   2.064   1_455  S
C130        N134   1.346       .  A
C130        C158   1.478       .  S
C130        C302   1.503       .  S
N131        C146   1.333       .  A
N131       Co153   2.045       .  S
C132       N1512   1.336       .  A
C132        C135   1.475       .  S
C132        H166   1.064       .  S
C135        N156   1.358       .  A
C135        C425   1.523       .  S
N136        N142   1.317       .  A
N136      Co1472   2.066   1_455  S
N137        C163   1.347       .  A
N137        N139   1.325       .  A
N137      Co1505   2.114   1_455  S
N138        C152   1.332       .  A
N139        N167   1.328       .  A
N139      Co1509   2.099   1_455  S
H140        C163   1.081   1_565  S
H141        C158   1.080       .  S
N142      Co1474   2.101   1_455  S
N143       Co157   2.099       .  S
N144        N156   1.327       .  A
N144       N1512   1.315       .  A
N144      Co1505   2.090   1_455  S
C145        N149   1.353       .  A
C145        C159   1.457       .  S
C145        C383   1.491       .  S
C146        C165   1.447       .  S
C146        H150   1.082   1_545  S
N147        C158   1.345       .  A
N147      Co1509   2.119   1_455  S
C151        N167   1.352       .  A
C151        C163   1.467       .  S
C151        C285   1.502   1_545  S
Co153      N1489   2.114       .  S
Co153      N1496   2.090       .  S
Co153      Cl164   2.458       .  S
N154        C165   1.354       .  A
C155        C372   1.487       .  S
Co157      N1491   2.099       .  S
Co157      N1499   2.119       .  S
Co157      Cl164   2.444       .  S
N160       C1484   1.336       .  A
N160       N1496   1.315       .  A
C165        C313   1.477   1_545  S
C168        C299   1.529       .  S
C168        C470   1.532       .  S
C168        C169   1.401       .  D
C169        C288   1.529       .  S
C169        C456   1.537       .  S
C170        C327   1.518       .  S
C170        C495   1.525       .  S
C170        C171   1.392       .  D
C171        C316   1.532       .  S
C171        C481   1.517       .  S
C172        C274   1.568       .  S
C172        C526   1.534       .  S
C172        C173   1.418       .  D
C173        C257   1.567       .  S
C173        C509   1.524       .  S
C174        C246   1.527       .  S
C174        C551   1.509       .  S
C174        C175   1.399       .  D
C175        C229   1.515       .  S
C175        C537   1.539       .  S
C176        N194   1.364       .  A
C176        C213   1.439       .  S
C176        C414   1.492       .  S
N177        N194   1.335       .  A
N177        N199   1.314       .  A
N177       Co214   2.114       .  S
C178        N203   1.348       .  A
C178        C216   1.474       .  S
C178        H223   1.082       .  S
H179        C220   1.081       .  S
C180        N204   1.343       .  A
C180        C184   1.473       .  S
C180        H209   1.081       .  S
Co181       N199   2.027       .  S
Co181       N189   2.088       .  S
Co181      N1573   2.067       .  S
Co181      N1549   2.069       .  S
Co181      Cl225   2.452       .  S
N182        C220   1.356       .  A
N182        N189   1.315       .  A
N182       Co183   2.112       .  S
Co183       N186   2.076       .  S
Co183      N1555   2.116       .  S
Co183      N1542   2.083       .  S
Co183      Cl225   2.449       .  S
C184        N222   1.346       .  A
C184        C243   1.494       .  S
N185        N192   1.320       .  A
N185        N215   1.327       .  A
N185       Co218   2.114       .  S
N186        N204   1.323       .  A
N186        N222   1.322       .  A
N187        C216   1.348       .  A
N187        N197   1.326       .  A
H188        C213   1.078       .  S
N189        N210   1.324       .  A
N190        N208   1.324       .  A
N190        N195   1.326       .  A
N190      Co1535   2.083   1_455  S
C191        N195   1.349       .  A
C191        C219   1.481       .  S
C191        C271   1.520       .  S
N192        C207   1.339       .  A
N192       Co214   2.074       .  S
C193        N221   1.329       .  A
C193        C196   1.455       .  S
C193        H227   1.079       .  S
C196        N217   1.353       .  A
C196        C397   1.489       .  S
N197        N203   1.317       .  A
N197      Co1533   2.069   1_455  S
N198        C224   1.337       .  A
N198        N200   1.319       .  A
N198      Co1566   2.072   1_455  S
N199        C213   1.317       .  A
N200        N228   1.331       .  A
N200      Co1570   2.138   1_455  S
H201        C224   1.075       .  S
H202        C219   1.079       .  S
N203      Co1535   2.116   1_455  S
N204       Co218   2.109       .  S
N205        N217   1.333       .  A
N205        N221   1.318       .  A
N205      Co1566   2.095   1_455  S
C206        N210   1.347       .  A
C206        C220   1.476       .  S
C206        C358   1.511       .  S
C207        C226   1.460       .  S
C207        H211   1.082       .  S
N208        C219   1.344       .  A
N208      Co1570   2.123   1_455  S
C212        N228   1.368       .  A
C212        C224   1.463       .  S
C212        C260   1.523       .  S
Co214      N1550   2.072       .  S
Co214      N1557   2.095       .  S
Co214      Cl225   2.452       .  S
N215        C226   1.357       .  A
C216        C341   1.506       .  S
Co218      N1552   2.138       .  S
Co218      N1560   2.123       .  S
Co218      Cl225   2.454       .  S
N221      Co1533   2.067   1_455  S
C226        C232   1.491       .  S
C229        C230   1.412       .  A
C229        C234   1.421       .  A
C230        C907   1.411       .  A
C230        C235   1.443       .  S
C231        C232   1.414       .  A
C231        C906   1.411       .  A
C231        C238   1.447       .  S
C232        C909   1.407       .  A
C233        C234   1.414       .  A
C233        C908   1.407       .  A
C233        C912   1.450   1_545  S
C234        C237   1.449       .  S
C235        N242   1.154       .  T
C236        C909   1.450       .  S
C236        N241   1.157       .  T
C237        N239   1.156       .  T
C238        N240   1.156       .  T
C243        C244   1.412       .  A
C243        C248   1.410       .  A
C244        C245   1.419       .  A
C244        C249   1.451       .  S
C245        C246   1.423       .  A
C245        C252   1.448       .  S
C246        C247   1.427       .  A
C247        C248   1.408       .  A
C247        C250   1.452       .  S
C248        C251   1.453       .  S
C249        N256   1.157       .  T
C250        N255   1.158       .  T
C251        N253   1.157       .  T
C252        N254   1.157       .  T
C257        C258   1.416       .  A
C257        C262   1.432       .  A
C258        C259   1.433       .  A
C258        C263   1.445       .  S
C259        C936   1.433       .  A
C259        C266   1.447       .  S
C260        C261   1.410       .  A
C260        C935   1.433       .  A
C261        C938   1.410       .  A
C261        C264   1.451       .  S
C262        C937   1.410   1_545  A
C262        C265   1.451       .  S
C263        N270   1.156       .  T
C264        N269   1.157       .  T
C265        N267   1.158   1_545  T
C266        N268   1.158       .  T
C271        C272   1.434       .  A
C271        C276   1.409       .  A
C272        C273   1.435       .  A
C272        C277   1.448       .  S
C273        C274   1.413       .  A
C273        C280   1.438       .  S
C274        C275   1.426       .  A
C275        C276   1.401       .  A
C275        C278   1.450       .  S
C276        C279   1.448       .  S
C277       N1636   1.157       .  T
C278        N283   1.158       .  T
C279        N281   1.157       .  T
C280        N282   1.156       .  T
N284       C1629   1.157       .  T
C285        C290   1.407       .  A
C285        C962   1.414       .  A
C286        C287   1.420       .  A
C286        C961   1.414       .  A
C286        C291   1.443       .  S
C287        C288   1.413       .  A
C287        C294   1.445       .  S
C288        C289   1.421       .  A
C289        C966   1.417       .  A
C289        C292   1.441       .  S
C290        C965   1.417       .  A
C290        C293   1.450   1_565  S
C291       N1650   1.156   1_455  T
C292        N297   1.153       .  T
C293        N295   1.157       .  T
C294        N296   1.155       .  T
N298       C1643   1.156       .  T
C299        C300   1.424       .  A
C299        C304   1.423       .  A
C300        C301   1.420       .  A
C300        C305   1.449       .  S
C301        C302   1.418       .  A
C301        C308   1.453       .  S
C302        C303   1.413       .  A
C303        C304   1.410       .  A
C303        C306   1.448       .  S
C304        C307   1.453       .  S
C305        N312   1.157       .  T
C306        N311   1.157       .  T
C307        N309   1.157       .  T
C308        N310   1.157       .  T
C313        C318   1.391       .  A
C313        C990   1.414       .  A
C314        C315   1.418       .  A
C314        C989   1.414       .  A
C314        C319   1.454       .  S
C315        C316   1.427       .  A
C315        C322   1.445       .  S
C316        C317   1.432       .  A
C317        C994   1.402       .  A
C317        C320   1.438       .  S
C318        C993   1.402       .  A
C318        C321   1.458   1_565  S
C319        N326   1.158       .  T
C320        N325   1.155       .  T
C321        N323   1.157       .  T
C322        N324   1.157       .  T
C327        C328   1.422       .  A
C327        C332   1.419       .  A
C328        C329   1.404       .  A
C328        C333   1.451       .  S
C329        C330   1.410       .  A
C329        C336   1.450       .  S
C330        C331   1.417       .  A
C331        C332   1.419       .  A
C331        C334   1.452       .  S
C332        C335   1.449       .  S
C333        N340   1.157       .  T
C334        N339   1.157       .  T
C335        N337   1.157       .  T
C336        N338   1.157       .  T
C341        C342   1.401       .  A
C341        C346   1.416       .  A
C342        C343   1.415       .  A
C342        C347   1.454       .  S
C343        C344   1.417       .  A
C343        C350   1.423       .  S
C344        C345   1.399       .  A
C345        C346   1.415       .  A
C345        C348   1.450       .  S
C346        C349   1.420       .  S
C347        N354   1.157       .  T
C348        N353   1.157       .  T
C349        N351   1.147       .  T
C350        N352   1.149       .  T
C355        C356   1.437       .  A
C355        C360   1.430       .  A
C356        C357   1.442       .  A
C356        C361   1.442       .  S
C357        C358   1.420       .  A
C357        C364   1.448       .  S
C358        C359   1.403       .  A
C359        C360   1.395       .  A
C359        C362   1.453       .  S
C360        C363   1.446       .  S
C361        N368   1.158       .  T
C362        N367   1.157   1_554  T
C363        N365   1.158   1_554  T
C364        N366   1.157       .  T
C369        C370   1.432       .  A
C369        C374   1.442       .  A
C370        C371   1.419       .  A
C370        C375   1.433       .  S
C371        C372   1.398       .  A
C371        C378   1.456       .  S
C372        C373   1.394       .  A
C373        C374   1.420       .  A
C373        C376   1.452       .  S
C374        C377   1.441       .  S
C375        N382   1.156       .  T
C376        N381   1.157       .  T
C377        N379   1.157       .  T
C378        N380   1.157       .  T
C383        C384   1.403       .  A
C383        C388   1.410       .  A
C384        C385   1.402       .  A
C384        C389   1.445       .  S
C385        C386   1.409       .  A
C385        C392   1.433       .  S
C386        C387   1.413       .  A
C387        C388   1.419       .  A
C387        C390   1.437       .  S
C388        C391   1.447       .  S
C389        N396   1.156       .  T
C390        N395   1.154       .  T
C391        N393   1.157       .  T
C392        N394   1.149       .  T
C397        C398   1.415       .  A
C397        C402   1.392       .  A
C398        C399   1.439       .  A
C398        C403   1.452       .  S
C399        C400   1.432       .  A
C399        C406   1.444       .  S
C400        C788   1.580   1_554  S
C400        C401   1.430       .  A
C401        C402   1.394       .  A
C401       C1080   1.444   1_554  S
C402        C405   1.453       .  S
C403        N410   1.157       .  T
C404       C1077   1.444   1_556  S
C404        N409   1.157       .  T
C405       N1083   1.157       .  T
C406        N408   1.157       .  T
N407       C1081   1.157       .  T
C411        C787   1.511   1_554  S
C411        C412   1.435       .  A
C411        C416   1.413       .  A
C412        C413   1.422       .  A
C412        C417   1.453       .  S
C413        C414   1.410       .  A
C413        C420   1.450       .  S
C414        C415   1.413       .  A
C415        C416   1.398       .  A
C415        C418   1.456       .  S
C416        C419   1.449   1_554  S
C417        N424   1.158       .  T
C418        N423   1.158   1_554  T
C419        N421   1.156       .  T
C420        N422   1.157       .  T
C425        C426   1.427       .  A
C425        C430   1.426       .  A
C426        C427   1.419   1_545  A
C426       C1107   1.451   1_545  S
C427        C428   1.416   1_565  A
C427       C1110   1.453       .  S
C428        C429   1.400       .  A
C429        C430   1.413       .  A
C429        C432   1.440   1_556  S
C430        C433   1.445       .  S
C431       C1102   1.451       .  S
C431        N438   1.157       .  T
C432        N437   1.152       .  T
C433        N435   1.157       .  T
C434       C1103   1.453       .  S
C434        N436   1.157       .  T
C439        C440   1.405       .  A
C439        C444   1.406       .  A
C440        C441   1.412       .  A
C440        C445   1.456   1_556  S
C441        C442   1.439       .  A
C441        C448   1.449   1_556  S
C442        C443   1.440       .  A
C443        C444   1.430       .  A
C443        C446   1.437   1_545  S
C444        C447   1.456       .  S
C445        N452   1.157       .  T
C446        N451   1.156       .  T
C447        N449   1.158       .  T
C448        N450   1.159       .  T
C453        C458   1.394       .  A
C453       C1130   1.415       .  A
C454        C455   1.417       .  A
C454       C1129   1.415       .  A
C454        C459   1.454       .  S
C455        C456   1.428       .  A
C455        C462   1.445       .  S
C456        C457   1.434       .  A
C457       C1134   1.408       .  A
C457        C460   1.443       .  S
C458       C1133   1.408       .  A
C458        C461   1.456   1_565  S
C459        N466   1.158       .  T
C460        N465   1.156       .  T
C461        N463   1.157       .  T
C462        N464   1.157       .  T
C467        C468   1.418       .  A
C467        C472   1.423       .  A
C468        C469   1.408       .  A
C468        C473   1.449       .  S
C469        C470   1.423       .  A
C469        C476   1.452       .  S
C470        C471   1.421       .  A
C471        C472   1.424       .  A
C471        C474   1.449       .  S
C472        C475   1.448       .  S
C473        N480   1.158       .  T
C474        N479   1.157       .  T
C475        N477   1.157       .  T
C476        N478   1.157       .  T
C481        C482   1.419       .  A
C481        C486   1.411       .  A
C482        C483   1.414       .  A
C482        C487   1.442       .  S
C483       C1160   1.406       .  A
C483        C490   1.450       .  S
C484        C485   1.410       .  A
C484       C1159   1.406       .  A
C485       C1162   1.413       .  A
C485        C488   1.445       .  S
C486       C1161   1.413       .  A
C486        C489   1.442       .  S
C487        N494   1.153       .  T
C488        N493   1.156   1_565  T
C489        N491   1.155       .  T
C490        N492   1.157       .  T
C495        C496   1.421       .  A
C495        C500   1.423       .  A
C496        C497   1.408       .  A
C496        C501   1.451       .  S
C497        C498   1.412       .  A
C497        C504   1.448       .  S
C498        C499   1.414       .  A
C499        C500   1.420       .  A
C499        C502   1.452       .  S
C500        C503   1.447       .  S
C501        N508   1.157       .  T
C502        N507   1.157       .  T
C503        N505   1.157       .  T
C504        N506   1.156       .  T
C509        C510   1.422       .  A
C509        C514   1.412       .  A
C510       C1187   1.420       .  A
C510        C515   1.448       .  S
C511        C512   1.409       .  A
C511       C1186   1.420       .  A
C511        C518   1.449       .  S
C512       C1189   1.415       .  A
C513        C514   1.417       .  A
C513       C1188   1.415       .  A
C513        C516   1.438       .  S
C514        C517   1.447       .  S
C515        N522   1.156       .  T
C516        N521   1.152       .  T
C517        N519   1.156       .  T
C518        N520   1.157       .  T
C523        C524   1.417       .  A
C523        C528   1.424       .  A
C524        C525   1.413       .  A
C524        C529   1.447       .  S
C525        C526   1.418       .  A
C525        C532   1.449       .  S
C526        C527   1.420       .  A
C527        C528   1.425       .  A
C527        C530   1.449       .  S
C528        C531   1.450       .  S
C529        N536   1.158       .  T
C530        N535   1.157       .  T
C531        N533   1.157       .  T
C532        N534   1.156       .  T
C537        C538   1.440       .  A
C537        C542   1.423       .  A
C538       C1215   1.414       .  A
C538        C543   1.448       .  S
C539        C540   1.401       .  A
C539       C1214   1.414       .  A
C539        C546   1.454       .  S
C540       C1217   1.416       .  A
C541        C542   1.410       .  A
C541       C1216   1.416       .  A
C541        C544   1.452       .  S
C542        C545   1.444       .  S
C543        N550   1.157       .  T
C544        N549   1.158       .  T
C545        N547   1.157       .  T
C546        N548   1.157       .  T
C551        C552   1.419       .  A
C551        C556   1.415       .  A
C552        C553   1.404       .  A
C552        C557   1.451       .  S
C553        C554   1.410       .  A
C553        C560   1.447       .  S
C554        C555   1.414       .  A
C555        C556   1.419       .  A
C555        C558   1.446       .  S
C556        C559   1.450       .  S
C557        N564   1.156       .  T
C558        N563   1.157       .  T
C559        N561   1.158       .  T
C560        N562   1.155       .  T
C565        C566   1.414       .  A
C565        C570   1.420       .  A
C566        C567   1.407       .  A
C566        C571   1.452       .  S
C567        C568   1.421       .  A
C567        C574   1.454       .  S
C568        C569   1.411       .  A
C569        C570   1.412       .  A
C569        C572   1.447       .  S
C570        C573   1.453       .  S
C571        N578   1.157       .  T
C572        N577   1.157       .  T
C573        N575   1.157       .  T
C574        N576   1.157       .  T
C579        C580   1.425       .  A
C579        C584   1.426       .  A
C580        C581   1.411       .  A
C580        C585   1.448       .  S
C581        C582   1.414       .  A
C581        C588   1.454       .  S
C582        C583   1.411       .  A
C583        C584   1.428       .  A
C583        C586   1.449       .  S
C584        C587   1.445       .  S
C585        N592   1.158       .  T
C586        N591   1.157       .  T
C587        N589   1.158       .  T
C588        N590   1.157       .  T
C593        C594   1.411       .  A
C593        C598   1.415       .  A
C594        C595   1.429       .  A
C594        C599   1.450       .  S
C595        C596   1.428       .  A
C595        C602   1.444       .  S
C596        C597   1.426       .  A
C597        C598   1.408       .  A
C597        C600   1.447       .  S
C598        C601   1.456       .  S
C599        N606   1.157       .  T
C600        N605   1.158       .  T
C601        N603   1.157       .  T
C602        N604   1.158   1_455  T
C607        C608   1.429       .  A
C607        C612   1.417       .  A
C608        C609   1.410       .  A
C608        C613   1.453       .  S
C609        C610   1.408       .  A
C609        C616   1.454       .  S
C610        C611   1.418       .  A
C611        C612   1.417       .  A
C611        C614   1.455       .  S
C612        C615   1.445       .  S
C613        N620   1.158       .  T
C614        N619   1.157       .  T
C615        N617   1.156       .  T
C616        N618   1.157       .  T
C621        C622   1.421       .  A
C621        C626   1.418       .  A
C622        C623   1.431       .  A
C622       C1303   1.449   1_545  S
C623        C624   1.426       .  A
C623       C1306   1.446   1_545  S
C624        C678   1.531       .  S
C624        C625   1.409       .  A
C625        C626   1.400       .  A
C625        C628   1.448       .  S
C626        C629   1.451       .  S
C627       C1298   1.449       .  S
C627        N634   1.157       .  T
C628        N633   1.156       .  T
C629        N631   1.158       .  T
C630       C1299   1.446       .  S
C630        N632   1.158   1_455  T
C635        C636   1.398   1_545  A
C635        C640   1.409       .  A
C636        C637   1.402       .  A
C636        C641   1.453       .  S
C637        C638   1.420   1_565  A
C637       C1320   1.439       .  S
C638        C639   1.416       .  A
C639        C640   1.408       .  A
C639        C642   1.445       .  S
C640        C643   1.449       .  S
C641        N648   1.157       .  T
C642       N1999   1.156       .  T
C643        N645   1.156       .  T
C644       C1313   1.439       .  S
C644        N646   1.153       .  T
N647       C1994   1.156       .  T
C649        C650   1.426       .  A
C649        C654   1.424       .  A
C650        C651   1.392       .  A
C650        C655   1.450       .  S
C651        C652   1.397       .  A
C651        C658   1.451       .  S
C652        C653   1.410       .  A
C653        C654   1.419       .  A
C653       C1332   1.448       .  S
C654       C1333   1.449       .  S
C655        N662   1.158       .  T
C656       C1329   1.448   1_545  S
C656        N661   1.157   1_455  T
C657       C1330   1.449   1_545  S
C657        N659   1.157       .  T
C658        N660   1.156       .  T
C663        C677   1.529       .  S
C663        C664   1.428       .  A
C663        C668   1.426       .  A
C664        C665   1.410       .  A
C664        C669   1.441       .  S
C665        C666   1.397       .  A
C665        C672   1.453       .  S
C666        C667   1.407       .  A
C667        C668   1.414       .  A
C667        C670   1.454       .  S
C668        C671   1.443       .  S
C669       N1352   1.154       .  T
C670        N675   1.157       .  T
C671       N2025   1.155       .  T
C672        N674   1.157       .  T
N673       C2023   1.155       .  T
N676       C1345   1.154       .  T
C677       C1314   1.504       .  S
C677       C1354   1.374       .  D
C678       C1328   1.496   1_545  S
C678       C1353   1.374   1_445  D
C679       C1255   1.569       .  S
C679       C1286   1.503       .  S
C679       C2032   1.401       .  D
C680       C1241   1.502       .  S
C680       C1272   1.567       .  S
C680       C2031   1.401   1_455  D
C681        N699   1.352       .  A
C681        C718   1.446       .  S
C681       C1342   1.480       .  S
N682        N699   1.329       .  A
N682        N704   1.315       .  A
N682       Co719   2.095       .  S
C683        N708   1.360       .  A
C683        C721   1.486       .  S
C683        H728   1.081       .  S
H684        C725   1.077       .  S
C685        N709   1.344       .  A
C685        C689   1.478       .  S
C685        H714   1.082       .  S
Co686       N704   2.053       .  S
Co686       N694   2.036       .  S
Co686       N726   2.043       .  S
Co686       N702   2.056       .  S
Co686      Cl730   2.444       .  S
N687        C725   1.350       .  A
N687        N694   1.311       .  A
N687       Co688   2.110       .  S
Co688       N691   2.079       .  S
Co688       N708   2.121       .  S
Co688       N695   2.087       .  S
Co688      Cl730   2.462       .  S
C689        N727   1.348       .  A
C689       C1230   1.495       .  S
N690        N697   1.317       .  A
N690        N720   1.329       .  A
N690       Co723   2.119       .  S
N691        N709   1.323       .  A
N691        N727   1.322       .  A
N692        C721   1.336       .  A
N692        N702   1.311       .  A
H693        C718   1.079       .  S
N694        N715   1.314       .  A
N695        N713   1.324       .  A
N695        N700   1.326       .  A
C696        N700   1.351       .  A
C696        C724   1.481       .  S
C696       C1199   1.517       .  S
N697        C712   1.331       .  A
N697       Co719   2.053       .  S
C698        N726   1.321       .  A
C698        C701   1.449       .  S
C698        H732   1.072       .  S
C701        N722   1.363       .  A
C701       C1325   1.500       .  S
N702        N708   1.316       .  A
N703        C729   1.343       .  A
N703        N705   1.324       .  A
N703       Co719   2.098       .  S
N704        C718   1.334       .  A
N705        N733   1.332       .  A
N705       Co723   2.131       .  S
H706        C729   1.082   1_545  S
H707        C724   1.078       .  S
N709       Co723   2.119       .  S
N710        N722   1.331       .  A
N710        N726   1.312       .  A
N710       Co719   2.097       .  S
C711        N715   1.341       .  A
C711        C725   1.485       .  S
C711       C1283   1.511       .  S
C712        C731   1.453       .  S
C712        H716   1.078   1_565  S
N713        C724   1.347       .  A
N713       Co723   2.132       .  S
C717        N733   1.360       .  A
C717        C729   1.463       .  S
C717       C1188   1.506   1_565  S
Co719      Cl730   2.454       .  S
N720        C731   1.364       .  A
C721       C1269   1.503       .  S
Co723      Cl730   2.445       .  S
C731       C1216   1.499   1_565  S
C734        N752   1.348       .  A
C734        C771   1.446       .  S
C734       C1311   1.468       .  S
N735        N752   1.326       .  A
N735        N757   1.318       .  A
N735       Co772   2.074       .  S
C736        N761   1.350       .  A
C736        C774   1.477       .  S
C736        H781   1.081       .  S
H737        C778   1.081       .  S
C738        N762   1.343       .  A
C738        C742   1.475       .  S
C738        H767   1.081       .  S
Co739       N757   2.061       .  S
Co739       N747   2.050       .  S
Co739       N779   2.058       .  S
Co739       N755   2.055       .  S
Co739      Cl783   2.436       .  S
N740        C778   1.361       .  A
N740        N747   1.316       .  A
N740       Co741   2.136       .  S
Co741       N744   2.064       .  S
Co741       N761   2.099       .  S
Co741       N748   2.104       .  S
Co741      Cl783   2.472       .  S
C742        N780   1.346       .  A
C742       C1174   1.499       .  S
N743        N750   1.321       .  A
N743        N773   1.327       .  A
N743       Co776   2.094       .  S
N744        N762   1.323       .  A
N744        N780   1.321       .  A
N745        C774   1.338       .  A
N745        N755   1.313       .  A
H746        C771   1.080       .  S
N747        N768   1.315       .  A
N748        N766   1.321       .  A
N748        N753   1.329       .  A
C749        N753   1.357       .  A
C749        C777   1.474       .  S
C749       C1143   1.516       .  S
N750        C765   1.342       .  A
N750       Co772   2.099       .  S
C751        N779   1.328       .  A
C751        C754   1.454       .  S
C751        H785   1.075       .  S
C754        N775   1.366       .  A
C754       C1297   1.515       .  S
N755        N761   1.316       .  A
N756        C782   1.332       .  A
N756        N758   1.321       .  A
N756       Co772   2.042       .  S
N757        C771   1.333       .  A
N758        N786   1.327       .  A
N758       Co776   2.120       .  S
H759        C782   1.082       .  S
H760        C777   1.076       .  S
N762       Co776   2.121       .  S
N763        N775   1.337       .  A
N763        N779   1.312       .  A
N763       Co772   2.117       .  S
C764        N768   1.339       .  A
C764        C778   1.486       .  S
C764       C1258   1.507       .  S
C765        C784   1.462       .  S
C765        H769   1.082       .  S
N766        C777   1.338       .  A
N766       Co776   2.100       .  S
C770        N786   1.358       .  A
C770        C782   1.447       .  S
C770       C1129   1.486       .  S
Co772      Cl783   2.462       .  S
N773        C784   1.353       .  A
C774       C1244   1.496       .  S
Co776      Cl783   2.427       .  S
C784       C1160   1.490       .  S
C787       C1118   1.569       .  S
C787        C788   1.414       .  D
C788       C1104   1.518       .  S
C789       C1031   1.588   1_556  S
C789       C1062   1.517       .  S
C789        C790   1.413       .  D
C790       C1020   1.515   1_556  S
C790       C1045   1.557       .  S
C791        N809   1.362       .  A
C791        C828   1.453       .  S
C791       C1115   1.507       .  S
N792        N809   1.334       .  A
N792        N814   1.316       .  A
N792       Co829   2.122       .  S
C793        N818   1.351       .  A
C793        C831   1.469       .  S
C793        H838   1.081       .  S
H794        C835   1.080       .  S
C795        N819   1.342       .  A
C795        C799   1.476       .  S
C795        H824   1.080       .  S
Co796       N814   2.053       .  S
Co796       N804   2.099       .  S
Co796       N836   2.091       .  S
Co796      N2164   2.066       .  S
Co796      Cl840   2.446       .  S
N797        C835   1.347       .  A
N797        N804   1.317       .  A
N797       Co798   2.078       .  S
Co798       N801   2.067       .  S
Co798      N2170   2.101       .  S
Co798      N2157   2.064       .  S
Co798      Cl840   2.457       .  S
C799        N837   1.347       .  A
C799       C1006   1.495       .  S
N800        N807   1.321       .  A
N800        N830   1.324       .  A
N800       Co833   2.107       .  S
N801        N819   1.318       .  A
N801        N837   1.320       .  A
N802        C831   1.343       .  A
N802        N812   1.319       .  A
H803        C828   1.079       .  S
N804        N825   1.324       .  A
N805        N823   1.322       .  A
N805        N810   1.321       .  A
N805      Co2150   2.064   1_455  S
C806        N810   1.346       .  A
C806        C834   1.478       .  S
C806        C978   1.503       .  S
N807        C822   1.333       .  A
N807       Co829   2.044       .  S
C808       N2188   1.336       .  A
C808        C811   1.475       .  S
C808        H842   1.064       .  S
C811        N832   1.358       .  A
C811       C1101   1.523       .  S
N812        N818   1.317       .  A
N812      Co2148   2.066   1_455  S
N813        C839   1.347       .  A
N813        N815   1.325       .  A
N813      Co2181   2.114   1_455  S
N814        C828   1.332       .  A
N815        N843   1.328       .  A
N815      Co2185   2.099   1_455  S
H816        C839   1.081       .  S
H817        C834   1.080       .  S
N818      Co2150   2.101   1_455  S
N819       Co833   2.099       .  S
N820        N832   1.326       .  A
N820       N2188   1.315       .  A
N820      Co2181   2.090   1_455  S
C821        N825   1.353       .  A
C821        C835   1.457       .  S
C821       C1059   1.491       .  S
C822        C841   1.447       .  S
C822        H826   1.082       .  S
N823        C834   1.345       .  A
N823      Co2185   2.119   1_455  S
C827        N843   1.352       .  A
C827        C839   1.467       .  S
C827        C961   1.502       .  S
Co829      N2165   2.114       .  S
Co829      N2172   2.090       .  S
Co829      Cl840   2.458       .  S
N830        C841   1.354       .  A
C831       C1048   1.487       .  S
Co833      N2167   2.099       .  S
Co833      N2175   2.119       .  S
Co833      Cl840   2.444       .  S
N836       C2160   1.336       .  A
N836       N2172   1.315       .  A
C841        C989   1.477       .  S
C844        C975   1.529       .  S
C844       C1146   1.532       .  S
C844        C845   1.401       .  D
C845        C964   1.529       .  S
C845       C1132   1.537       .  S
C846       C1003   1.518       .  S
C846       C1171   1.525       .  S
C846        C847   1.392       .  D
C847        C992   1.532       .  S
C847       C1157   1.517       .  S
C848        C950   1.568       .  S
C848       C1202   1.534       .  S
C848        C849   1.418       .  D
C849        C933   1.567       .  S
C849       C1185   1.524       .  S
C850        C922   1.527       .  S
C850       C1227   1.509       .  S
C850        C851   1.399       .  D
C851        C905   1.515       .  S
C851       C1213   1.539       .  S
C852        N870   1.364       .  A
C852        C889   1.439       .  S
C852       C1090   1.492       .  S
N853        N870   1.335       .  A
N853        N875   1.314       .  A
N853       Co890   2.114       .  S
C854        N879   1.348       .  A
C854        C892   1.474       .  S
C854        H899   1.082       .  S
H855        C896   1.081       .  S
C856        N880   1.343       .  A
C856        C860   1.473       .  S
C856        H885   1.081       .  S
Co857       N875   2.027       .  S
Co857       N865   2.088       .  S
Co857      N2249   2.067       .  S
Co857      N2225   2.069       .  S
Co857      Cl901   2.452       .  S
N858        C896   1.356       .  A
N858        N865   1.315       .  A
N858       Co859   2.112       .  S
Co859       N862   2.076       .  S
Co859      N2231   2.116       .  S
Co859      N2218   2.083       .  S
Co859      Cl901   2.449       .  S
C860        N898   1.346       .  A
C860        C919   1.494       .  S
N861        N868   1.320       .  A
N861        N891   1.327       .  A
N861       Co894   2.114       .  S
N862        N880   1.323       .  A
N862        N898   1.322       .  A
N863        C892   1.348       .  A
N863        N873   1.326       .  A
H864        C889   1.078       .  S
N865        N886   1.324       .  A
N866        N884   1.324       .  A
N866        N871   1.326       .  A
N866      Co2211   2.083   1_455  S
C867        N871   1.349       .  A
C867        C895   1.481       .  S
C867        C947   1.520       .  S
N868        C883   1.339       .  A
N868       Co890   2.074       .  S
C869        N897   1.329       .  A
C869        C872   1.455       .  S
C869        H903   1.079       .  S
C872        N893   1.353       .  A
C872       C1073   1.489       .  S
N873        N879   1.317       .  A
N873      Co2209   2.069   1_455  S
N874        C900   1.337       .  A
N874        N876   1.319       .  A
N874      Co2242   2.072   1_455  S
N875        C889   1.317       .  A
N876        N904   1.331       .  A
N876      Co2246   2.138   1_455  S
H877        C900   1.075   1_545  S
H878        C895   1.079       .  S
N879      Co2211   2.116   1_455  S
N880       Co894   2.109       .  S
N881        N893   1.333       .  A
N881        N897   1.318       .  A
N881      Co2242   2.095   1_455  S
C882        N886   1.347       .  A
C882        C896   1.476       .  S
C882       C1034   1.511       .  S
C883        C902   1.460       .  S
C883        H887   1.082   1_565  S
N884        C895   1.344       .  A
N884      Co2246   2.123   1_455  S
C888        N904   1.368       .  A
C888        C900   1.463       .  S
C888        C936   1.523   1_565  S
Co890      N2226   2.072       .  S
Co890      N2233   2.095       .  S
Co890      Cl901   2.452       .  S
N891        C902   1.357       .  A
C892       C1017   1.506       .  S
Co894      N2228   2.138       .  S
Co894      N2236   2.123       .  S
Co894      Cl901   2.454       .  S
N897      Co2209   2.067   1_455  S
C902        C908   1.491   1_565  S
C905        C906   1.412       .  A
C905        C910   1.421       .  A
C906        C911   1.443       .  S
C907        C908   1.414       .  A
C907        C914   1.447       .  S
C909        C910   1.415       .  A
C910        C913   1.449       .  S
C911        N918   1.154       .  T
C912        N917   1.157       .  T
C913        N915   1.156       .  T
C914        N916   1.156       .  T
C919        C920   1.412       .  A
C919        C924   1.410       .  A
C920        C921   1.419       .  A
C920        C925   1.451       .  S
C921        C922   1.423       .  A
C921        C928   1.448       .  S
C922        C923   1.427       .  A
C923        C924   1.408       .  A
C923        C926   1.452       .  S
C924        C927   1.453       .  S
C925        N932   1.157       .  T
C926        N931   1.158       .  T
C927        N929   1.157       .  T
C928        N930   1.157       .  T
C933        C934   1.416       .  A
C933        C938   1.432       .  A
C934        C935   1.433       .  A
C934        C939   1.445       .  S
C935        C942   1.447       .  S
C936        C937   1.410   1_545  A
C937        C940   1.451       .  S
C938        C941   1.451       .  S
C939        N946   1.156       .  T
C940        N945   1.157       .  T
C941        N943   1.158       .  T
C942        N944   1.158       .  T
C947        C948   1.434       .  A
C947        C952   1.409       .  A
C948        C949   1.435       .  A
C948        C953   1.448       .  S
C949        C950   1.413       .  A
C949        C956   1.438       .  S
C950        C951   1.426       .  A
C951        C952   1.401       .  A
C951        C954   1.450       .  S
C952        C955   1.448       .  S
C953       N2312   1.157       .  T
C954        N959   1.158       .  T
C955        N957   1.157       .  T
C956        N958   1.156       .  T
N960       C2305   1.157       .  T
C961        C966   1.407       .  A
C962        C963   1.420       .  A
C962        C967   1.443       .  S
C963        C964   1.413       .  A
C963        C970   1.445       .  S
C964        C965   1.421       .  A
C965        C968   1.441       .  S
C966        C969   1.450       .  S
C967       N2326   1.156   1_455  T
C968        N973   1.153       .  T
C969        N971   1.157       .  T
C970        N972   1.155       .  T
N974       C2319   1.156       .  T
C975        C976   1.424       .  A
C975        C980   1.423       .  A
C976        C977   1.420       .  A
C976        C981   1.449       .  S
C977        C978   1.418       .  A
C977        C984   1.453       .  S
C978        C979   1.413       .  A
C979        C980   1.410       .  A
C979        C982   1.448       .  S
C980        C983   1.453       .  S
C981        N988   1.157       .  T
C982        N987   1.157       .  T
C983        N985   1.157       .  T
C984        N986   1.157       .  T
C989        C994   1.391       .  A
C990        C991   1.418       .  A
C990        C995   1.454       .  S
C991        C992   1.427       .  A
C991        C998   1.445       .  S
C992        C993   1.432       .  A
C993        C996   1.438       .  S
C994        C997   1.458       .  S
C995       N1002   1.158       .  T
C996       N1001   1.155       .  T
C997        N999   1.157       .  T
C998       N1000   1.157       .  T
C1003      C1004   1.422       .  A
C1003      C1008   1.419       .  A
C1004      C1005   1.404       .  A
C1004      C1009   1.451       .  S
C1005      C1006   1.410       .  A
C1005      C1012   1.450       .  S
C1006      C1007   1.417       .  A
C1007      C1008   1.419       .  A
C1007      C1010   1.452       .  S
C1008      C1011   1.449       .  S
C1009      N1016   1.157       .  T
C1010      N1015   1.157       .  T
C1011      N1013   1.157       .  T
C1012      N1014   1.157       .  T
C1017      C1018   1.401       .  A
C1017      C1022   1.416       .  A
C1018      C1019   1.415       .  A
C1018      C1023   1.454       .  S
C1019      C1020   1.417       .  A
C1019      C1026   1.423       .  S
C1020      C1021   1.399       .  A
C1021      C1022   1.415       .  A
C1021      C1024   1.450       .  S
C1022      C1025   1.420       .  S
C1023      N1030   1.157       .  T
C1024      N1029   1.157       .  T
C1025      N1027   1.147       .  T
C1026      N1028   1.149       .  T
C1031      C1032   1.437       .  A
C1031      C1036   1.430       .  A
C1032      C1033   1.442       .  A
C1032      C1037   1.442       .  S
C1033      C1034   1.420       .  A
C1033      C1040   1.448       .  S
C1034      C1035   1.403       .  A
C1035      C1036   1.395       .  A
C1035      C1038   1.453       .  S
C1036      C1039   1.446       .  S
C1037      N1044   1.158       .  T
C1038      N1043   1.157   1_554  T
C1039      N1041   1.158   1_554  T
C1040      N1042   1.157       .  T
C1045      C1046   1.432       .  A
C1045      C1050   1.442       .  A
C1046      C1047   1.419       .  A
C1046      C1051   1.433       .  S
C1047      C1048   1.398       .  A
C1047      C1054   1.456       .  S
C1048      C1049   1.394       .  A
C1049      C1050   1.420       .  A
C1049      C1052   1.452       .  S
C1050      C1053   1.441       .  S
C1051      N1058   1.156       .  T
C1052      N1057   1.157       .  T
C1053      N1055   1.157       .  T
C1054      N1056   1.157       .  T
C1059      C1060   1.403       .  A
C1059      C1064   1.410       .  A
C1060      C1061   1.402       .  A
C1060      C1065   1.445       .  S
C1061      C1062   1.409       .  A
C1061      C1068   1.433       .  S
C1062      C1063   1.413       .  A
C1063      C1064   1.419       .  A
C1063      C1066   1.437       .  S
C1064      C1067   1.447       .  S
C1065      N1072   1.156       .  T
C1066      N1071   1.154       .  T
C1067      N1069   1.157       .  T
C1068      N1070   1.149       .  T
C1073      C1074   1.415       .  A
C1073      C1078   1.392       .  A
C1074      C1075   1.439       .  A
C1074      C1079   1.452       .  S
C1075      C1076   1.432       .  A
C1075      C1082   1.444       .  S
C1076      C1077   1.430       .  A
C1077      C1078   1.394       .  A
C1078      C1081   1.453   1_565  S
C1079      N1086   1.157       .  T
C1080      N1085   1.157       .  T
C1082      N1084   1.157       .  T
C1087      C1088   1.435       .  A
C1087      C1092   1.413       .  A
C1088      C1089   1.422       .  A
C1088      C1093   1.453   1_565  S
C1089      C1090   1.410       .  A
C1089      C1096   1.450       .  S
C1090      C1091   1.413       .  A
C1091      C1092   1.398       .  A
C1091      C1094   1.456       .  S
C1092      C1095   1.449   1_554  S
C1093      N1100   1.158       .  T
C1094      N1099   1.158   1_554  T
C1095      N1097   1.156       .  T
C1096      N1098   1.157   1_565  T
C1101      C1102   1.427       .  A
C1101      C1106   1.426       .  A
C1102      C1103   1.419       .  A
C1103      C1104   1.416       .  A
C1104      C1105   1.400       .  A
C1105      C1106   1.413       .  A
C1105      C1108   1.440   1_556  S
C1106      C1109   1.445       .  S
C1107      N1114   1.157       .  T
C1108      N1113   1.152       .  T
C1109      N1111   1.157       .  T
C1110      N1112   1.157       .  T
C1115      C1116   1.405       .  A
C1115      C1120   1.406       .  A
C1116      C1117   1.412       .  A
C1116      C1121   1.456   1_556  S
C1117      C1118   1.439       .  A
C1117      C1124   1.449   1_556  S
C1118      C1119   1.440       .  A
C1119      C1120   1.430       .  A
C1119      C1122   1.437       .  S
C1120      C1123   1.456       .  S
C1121      N1128   1.157       .  T
C1122      N1127   1.156       .  T
C1123      N1125   1.158       .  T
C1124      N1126   1.159       .  T
C1129      C1134   1.394       .  A
C1130      C1131   1.417       .  A
C1130      C1135   1.454       .  S
C1131      C1132   1.428       .  A
C1131      C1138   1.445       .  S
C1132      C1133   1.434       .  A
C1133      C1136   1.443       .  S
C1134      C1137   1.456       .  S
C1135      N1142   1.158       .  T
C1136      N1141   1.156       .  T
C1137      N1139   1.157       .  T
C1138      N1140   1.157       .  T
C1143      C1144   1.418       .  A
C1143      C1148   1.423       .  A
C1144      C1145   1.408       .  A
C1144      C1149   1.449       .  S
C1145      C1146   1.423       .  A
C1145      C1152   1.452       .  S
C1146      C1147   1.421       .  A
C1147      C1148   1.424       .  A
C1147      C1150   1.449       .  S
C1148      C1151   1.448       .  S
C1149      N1156   1.158       .  T
C1150      N1155   1.157       .  T
C1151      N1153   1.157       .  T
C1152      N1154   1.157       .  T
C1157      C1158   1.419       .  A
C1157      C1162   1.411       .  A
C1158      C1159   1.414       .  A
C1158      C1163   1.442       .  S
C1159      C1166   1.450   1_565  S
C1160      C1161   1.410       .  A
C1161      C1164   1.445       .  S
C1162      C1165   1.442       .  S
C1163      N1170   1.153       .  T
C1164      N1169   1.156       .  T
C1165      N1167   1.155       .  T
C1166      N1168   1.157       .  T
C1171      C1172   1.421       .  A
C1171      C1176   1.423       .  A
C1172      C1173   1.408       .  A
C1172      C1177   1.451       .  S
C1173      C1174   1.412       .  A
C1173      C1180   1.448       .  S
C1174      C1175   1.414       .  A
C1175      C1176   1.420       .  A
C1175      C1178   1.452       .  S
C1176      C1179   1.447       .  S
C1177      N1184   1.157       .  T
C1178      N1183   1.157       .  T
C1179      N1181   1.157       .  T
C1180      N1182   1.156       .  T
C1185      C1186   1.422       .  A
C1185      C1190   1.412       .  A
C1186      C1191   1.448       .  S
C1187      C1188   1.409       .  A
C1187      C1194   1.449   1_545  S
C1189      C1190   1.417       .  A
C1189      C1192   1.438       .  S
C1190      C1193   1.447       .  S
C1191      N1198   1.156       .  T
C1192      N1197   1.152       .  T
C1193      N1195   1.156       .  T
C1194      N1196   1.157       .  T
C1199      C1200   1.417       .  A
C1199      C1204   1.424       .  A
C1200      C1201   1.413       .  A
C1200      C1205   1.447       .  S
C1201      C1202   1.418       .  A
C1201      C1208   1.449       .  S
C1202      C1203   1.420       .  A
C1203      C1204   1.425       .  A
C1203      C1206   1.449       .  S
C1204      C1207   1.450       .  S
C1205      N1212   1.158       .  T
C1206      N1211   1.157       .  T
C1207      N1209   1.157       .  T
C1208      N1210   1.156       .  T
C1213      C1214   1.440       .  A
C1213      C1218   1.423       .  A
C1214      C1219   1.448       .  S
C1215      C1216   1.401       .  A
C1215      C1222   1.454   1_545  S
C1217      C1218   1.410       .  A
C1217      C1220   1.452       .  S
C1218      C1221   1.444       .  S
C1219      N1226   1.157       .  T
C1220      N1225   1.158       .  T
C1221      N1223   1.157       .  T
C1222      N1224   1.157       .  T
C1227      C1228   1.419       .  A
C1227      C1232   1.415       .  A
C1228      C1229   1.404       .  A
C1228      C1233   1.451       .  S
C1229      C1230   1.410       .  A
C1229      C1236   1.447       .  S
C1230      C1231   1.414       .  A
C1231      C1232   1.419       .  A
C1231      C1234   1.446       .  S
C1232      C1235   1.450       .  S
C1233      N1240   1.156       .  T
C1234      N1239   1.157       .  T
C1235      N1237   1.158       .  T
C1236      N1238   1.155       .  T
C1241      C1242   1.414       .  A
C1241      C1246   1.420       .  A
C1242      C1243   1.407       .  A
C1242      C1247   1.452       .  S
C1243      C1244   1.421       .  A
C1243      C1250   1.454       .  S
C1244      C1245   1.411       .  A
C1245      C1246   1.412       .  A
C1245      C1248   1.447       .  S
C1246      C1249   1.453       .  S
C1247      N1254   1.157       .  T
C1248      N1253   1.157       .  T
C1249      N1251   1.157       .  T
C1250      N1252   1.157       .  T
C1255      C1256   1.424       .  A
C1255      C1260   1.426       .  A
C1256      C1257   1.411       .  A
C1256      C1261   1.448       .  S
C1257      C1258   1.414       .  A
C1257      C1264   1.454       .  S
C1258      C1259   1.411       .  A
C1259      C1260   1.428       .  A
C1259      C1262   1.449       .  S
C1260      C1263   1.445       .  S
C1261      N1268   1.158       .  T
C1262      N1267   1.157       .  T
C1263      N1265   1.158       .  T
C1264      N1266   1.157       .  T
C1269      C1270   1.411       .  A
C1269      C1274   1.415       .  A
C1270      C1271   1.429       .  A
C1270      C1275   1.450       .  S
C1271      C1272   1.428       .  A
C1271      C1278   1.444       .  S
C1272      C1273   1.426       .  A
C1273      C1274   1.408       .  A
C1273      C1276   1.447       .  S
C1274      C1277   1.456       .  S
C1275      N1282   1.157       .  T
C1276      N1281   1.158       .  T
C1277      N1279   1.157       .  T
C1278      N1280   1.158   1_455  T
C1283      C1284   1.429       .  A
C1283      C1288   1.417       .  A
C1284      C1285   1.410       .  A
C1284      C1289   1.453       .  S
C1285      C1286   1.408       .  A
C1285      C1292   1.454       .  S
C1286      C1287   1.418       .  A
C1287      C1288   1.417       .  A
C1287      C1290   1.455       .  S
C1288      C1291   1.445       .  S
C1289      N1296   1.158       .  T
C1290      N1295   1.157       .  T
C1291      N1293   1.156       .  T
C1292      N1294   1.157       .  T
C1297      C1298   1.421       .  A
C1297      C1302   1.418       .  A
C1298      C1299   1.431       .  A
C1299      C1300   1.426       .  A
C1300      C1301   1.409       .  A
C1301      C1302   1.400       .  A
C1301      C1304   1.448       .  S
C1302      C1305   1.451       .  S
C1303      N1310   1.157       .  T
C1304      N1309   1.156       .  T
C1305      N1307   1.158       .  T
C1306      N1308   1.158   1_455  T
C1311      C1312   1.398       .  A
C1311      C1316   1.409       .  A
C1312      C1313   1.402       .  A
C1312      C1317   1.453       .  S
C1313      C1314   1.420       .  A
C1314      C1315   1.416       .  A
C1315      C1316   1.408       .  A
C1315      C1318   1.445       .  S
C1316      C1319   1.449       .  S
C1317      N1324   1.157       .  T
C1318      N2675   1.156       .  T
C1319      N1321   1.156       .  T
C1320      N1322   1.153       .  T
N1323      C2670   1.156       .  T
C1325      C1326   1.426       .  A
C1325      C1330   1.424       .  A
C1326      C1327   1.392       .  A
C1326      C1331   1.450       .  S
C1327      C1328   1.397       .  A
C1327      C1334   1.451       .  S
C1328      C1329   1.410       .  A
C1329      C1330   1.419       .  A
C1331      N1338   1.158       .  T
C1332      N1337   1.157   1_455  T
C1333      N1335   1.157       .  T
C1334      N1336   1.156       .  T
C1339      C1340   1.428   1_565  A
C1339      C1344   1.426       .  A
C1340      C1341   1.410       .  A
C1340      C1345   1.441       .  S
C1341      C1342   1.397   1_545  A
C1341      C1348   1.453       .  S
C1342      C1343   1.407       .  A
C1343      C1344   1.414       .  A
C1343      C1346   1.454       .  S
C1344      C1347   1.443       .  S
C1346      N1351   1.157       .  T
C1347      N2701   1.155       .  T
C1348      N1350   1.157       .  T
N1349      C2699   1.155       .  T
C1353      C1990   1.504   1_565  S
C1353      C2691   1.529       .  S
C1354      C2652   1.531       .  S
C1354      C2004   1.496       .  S
C1355      C1931   1.569       .  S
C1355      C1962   1.503       .  S
C1356      C1917   1.502       .  S
C1356      C1948   1.567       .  S
C1357      N1375   1.352       .  A
C1357      C1394   1.446       .  S
C1357      C2018   1.480       .  S
N1358      N1375   1.329       .  A
N1358      N1380   1.315       .  A
N1358     Co1395   2.095       .  S
C1359      N1384   1.360       .  A
C1359      C1397   1.486       .  S
C1359      H1404   1.081       .  S
H1360      C1401   1.077       .  S
C1361      N1385   1.344       .  A
C1361      C1365   1.478       .  S
C1361      H1390   1.082       .  S
Co1362     N1380   2.053       .  S
Co1362     N1370   2.036       .  S
Co1362     N1402   2.043       .  S
Co1362     N1378   2.056       .  S
Co1362    Cl1406   2.444       .  S
N1363      C1401   1.350       .  A
N1363      N1370   1.311       .  A
N1363     Co1364   2.110       .  S
Co1364     N1367   2.079       .  S
Co1364     N1384   2.121       .  S
Co1364     N1371   2.087       .  S
Co1364    Cl1406   2.462       .  S
C1365      N1403   1.348       .  A
C1365      C1906   1.495       .  S
N1366      N1373   1.317       .  A
N1366      N1396   1.329       .  A
N1366     Co1399   2.119       .  S
N1367      N1385   1.323       .  A
N1367      N1403   1.322       .  A
N1368      C1397   1.336       .  A
N1368      N1378   1.311       .  A
H1369      C1394   1.079       .  S
N1370      N1391   1.314       .  A
N1371      N1389   1.324       .  A
N1371      N1376   1.326       .  A
C1372      N1376   1.351       .  A
C1372      C1400   1.481       .  S
C1372      C1875   1.517       .  S
N1373      C1388   1.331       .  A
N1373     Co1395   2.053       .  S
C1374      N1402   1.321       .  A
C1374      C1377   1.449       .  S
C1374      H1408   1.072       .  S
C1377      N1398   1.363       .  A
C1377      C2001   1.500       .  S
N1378      N1384   1.316       .  A
N1379      C1405   1.343       .  A
N1379      N1381   1.324       .  A
N1379     Co1395   2.098       .  S
N1380      C1394   1.334       .  A
N1381      N1409   1.332       .  A
N1381     Co1399   2.131       .  S
H1382      C1405   1.082       .  S
H1383      C1400   1.078       .  S
N1385     Co1399   2.119       .  S
N1386      N1398   1.331       .  A
N1386      N1402   1.312       .  A
N1386     Co1395   2.097       .  S
C1387      N1391   1.341       .  A
C1387      C1401   1.485       .  S
C1387      C1959   1.511       .  S
C1388      C1407   1.453       .  S
C1388      H1392   1.078       .  S
N1389      C1400   1.347       .  A
N1389     Co1399   2.132       .  S
C1393      N1409   1.360       .  A
C1393      C1405   1.463       .  S
C1393      C1864   1.506       .  S
Co1395    Cl1406   2.454       .  S
N1396      C1407   1.364       .  A
C1397      C1945   1.503       .  S
Co1399    Cl1406   2.445       .  S
C1407      C1892   1.499       .  S
C1410      N1428   1.348       .  A
C1410      C1447   1.446       .  S
C1410      C1987   1.468       .  S
N1411      N1428   1.326       .  A
N1411      N1433   1.318       .  A
N1411     Co1448   2.074       .  S
C1412      N1437   1.350       .  A
C1412      C1450   1.477       .  S
C1412      H1457   1.081       .  S
H1413      C1454   1.081       .  S
C1414      N1438   1.343       .  A
C1414      C1418   1.475       .  S
C1414      H1443   1.081       .  S
Co1415     N1433   2.061       .  S
Co1415     N1423   2.050       .  S
Co1415     N1455   2.058       .  S
Co1415     N1431   2.055       .  S
Co1415    Cl1459   2.436       .  S
N1416      C1454   1.361       .  A
N1416      N1423   1.316       .  A
N1416     Co1417   2.136       .  S
Co1417     N1420   2.064       .  S
Co1417     N1437   2.099       .  S
Co1417     N1424   2.104       .  S
Co1417    Cl1459   2.472       .  S
C1418      N1456   1.346       .  A
C1418      C1850   1.499       .  S
N1419      N1426   1.321       .  A
N1419      N1449   1.327       .  A
N1419     Co1452   2.094       .  S
N1420      N1438   1.323       .  A
N1420      N1456   1.321       .  A
N1421      C1450   1.338       .  A
N1421      N1431   1.313       .  A
H1422      C1447   1.080       .  S
N1423      N1444   1.315       .  A
N1424      N1442   1.321       .  A
N1424      N1429   1.329       .  A
C1425      N1429   1.357       .  A
C1425      C1453   1.474       .  S
C1425      C1819   1.516       .  S
N1426      C1441   1.342       .  A
N1426     Co1448   2.099       .  S
C1427      N1455   1.328       .  A
C1427      C1430   1.454       .  S
C1427      H1461   1.075       .  S
C1430      N1451   1.366       .  A
C1430      C1973   1.515       .  S
N1431      N1437   1.316       .  A
N1432      C1458   1.332       .  A
N1432      N1434   1.321       .  A
N1432     Co1448   2.042       .  S
N1433      C1447   1.333       .  A
N1434      N1462   1.327       .  A
N1434     Co1452   2.120       .  S
H1435      C1458   1.082   1_565  S
H1436      C1453   1.076       .  S
N1438     Co1452   2.121       .  S
N1439      N1451   1.337       .  A
N1439      N1455   1.312       .  A
N1439     Co1448   2.117       .  S
C1440      N1444   1.339       .  A
C1440      C1454   1.486       .  S
C1440      C1934   1.507       .  S
C1441      C1460   1.462       .  S
C1441      H1445   1.082   1_545  S
N1442      C1453   1.338       .  A
N1442     Co1452   2.100       .  S
C1446      N1462   1.358       .  A
C1446      C1458   1.447       .  S
C1446      C1805   1.486   1_545  S
Co1448    Cl1459   2.462       .  S
N1449      C1460   1.353       .  A
C1450      C1920   1.496       .  S
Co1452    Cl1459   2.427       .  S
C1460      C1836   1.490   1_545  S
C1463      C2439   1.511   1_556  S
C1463      C1794   1.569   1_565  S
C1463      C1464   1.414       .  D
C1464      C2428   1.580   1_556  S
C1464      C1780   1.518   1_565  S
C1465      C1707   1.588   1_556  S
C1465      C1738   1.517       .  S
C1465      C1466   1.413       .  D
C1466      C1696   1.515   1_556  S
C1466      C1721   1.557       .  S
C1467      N1485   1.362       .  A
C1467      C1504   1.453       .  S
C1467      C1791   1.507       .  S
N1468      N1485   1.334       .  A
N1468      N1490   1.316       .  A
N1468     Co1505   2.122       .  S
C1469      N1494   1.351       .  A
C1469      C1507   1.469       .  S
C1469      H1514   1.081       .  S
H1470      C1511   1.080       .  S
C1471      N1495   1.342       .  A
C1471      C1475   1.476       .  S
C1471      H1500   1.080       .  S
Co1472     N1490   2.053       .  S
Co1472     N1480   2.099       .  S
Co1472     N1512   2.091   1_655  S
Co1472    Cl1516   2.446       .  S
N1473      C1511   1.347       .  A
N1473      N1480   1.317       .  A
N1473     Co1474   2.078       .  S
Co1474     N1477   2.067       .  S
Co1474    Cl1516   2.457       .  S
C1475      N1513   1.347       .  A
C1475      C1682   1.495       .  S
N1476      N1483   1.321       .  A
N1476      N1506   1.324       .  A
N1476     Co1509   2.107       .  S
N1477      N1495   1.318       .  A
N1477      N1513   1.320       .  A
N1478      C1507   1.343       .  A
N1478      N1488   1.319       .  A
H1479      C1504   1.079       .  S
N1480      N1501   1.324       .  A
N1481      N1499   1.322       .  A
N1481      N1486   1.321       .  A
C1482      N1486   1.346       .  A
C1482      C1510   1.478       .  S
C1482      C1654   1.503       .  S
N1483      C1498   1.333       .  A
N1483     Co1505   2.045       .  S
C1484      C1487   1.475       .  S
C1484      H1518   1.064       .  S
C1487      N1508   1.358       .  A
C1487      C1777   1.523       .  S
N1488      N1494   1.317       .  A
N1489      C1515   1.347       .  A
N1489      N1491   1.325       .  A
N1490      C1504   1.332       .  A
N1491      N1519   1.328       .  A
H1492      C1515   1.081   1_565  S
H1493      C1510   1.080       .  S
N1495     Co1509   2.099       .  S
N1496      N1508   1.327       .  A
C1497      N1501   1.353       .  A
C1497      C1511   1.457       .  S
C1497      C1735   1.491       .  S
C1498      C1517   1.447       .  S
C1498      H1502   1.082   1_545  S
N1499      C1510   1.345       .  A
C1503      N1519   1.352       .  A
C1503      C1515   1.467       .  S
C1503      C1637   1.502   1_545  S
Co1505    Cl1516   2.458       .  S
N1506      C1517   1.354       .  A
C1507      C1724   1.487       .  S
Co1509    Cl1516   2.444       .  S
C1517      C1665   1.477   1_545  S
C1520      C1651   1.529       .  S
C1520      C1822   1.532       .  S
C1520      C1521   1.401       .  D
C1521      C1640   1.529       .  S
C1521      C1808   1.537       .  S
C1522      C1679   1.518       .  S
C1522      C1847   1.525       .  S
C1522      C1523   1.392       .  D
C1523      C1668   1.532       .  S
C1523      C1833   1.517       .  S
C1524      C1626   1.568       .  S
C1524      C1878   1.534       .  S
C1524      C1525   1.418       .  D
C1525      C1609   1.567       .  S
C1525      C1861   1.524       .  S
C1526      C1598   1.527       .  S
C1526      C1903   1.509       .  S
C1526      C1527   1.399       .  D
C1527      C1581   1.515       .  S
C1527      C1889   1.539       .  S
C1528      N1546   1.364       .  A
C1528      C1565   1.439       .  S
C1528      C1766   1.492       .  S
N1529      N1546   1.335       .  A
N1529      N1551   1.314       .  A
N1529     Co1566   2.114       .  S
C1530      N1555   1.348       .  A
C1530      C1568   1.474       .  S
C1530      H1575   1.082       .  S
H1531      C1572   1.081       .  S
C1532      N1556   1.343       .  A
C1532      C1536   1.473       .  S
C1532      H1561   1.081       .  S
Co1533     N1551   2.027       .  S
Co1533     N1541   2.088       .  S
Co1533    Cl1577   2.452       .  S
N1534      C1572   1.356       .  A
N1534      N1541   1.315       .  A
N1534     Co1535   2.112       .  S
Co1535     N1538   2.076       .  S
Co1535    Cl1577   2.449       .  S
C1536      N1574   1.346       .  A
C1536      C1595   1.494       .  S
N1537      N1544   1.320       .  A
N1537      N1567   1.327       .  A
N1537     Co1570   2.114       .  S
N1538      N1556   1.323       .  A
N1538      N1574   1.322       .  A
N1539      C1568   1.348       .  A
N1539      N1549   1.326       .  A
H1540      C1565   1.078       .  S
N1541      N1562   1.324       .  A
N1542      N1560   1.324       .  A
N1542      N1547   1.326       .  A
C1543      N1547   1.349       .  A
C1543      C1571   1.481       .  S
C1543      C1623   1.520       .  S
N1544      C1559   1.339       .  A
N1544     Co1566   2.074       .  S
C1545      N1573   1.329       .  A
C1545      C1548   1.455       .  S
C1545      H1579   1.079       .  S
C1548      N1569   1.353       .  A
C1548      C1749   1.489       .  S
N1549      N1555   1.317       .  A
N1550      C1576   1.337       .  A
N1550      N1552   1.319       .  A
N1551      C1565   1.317       .  A
N1552      N1580   1.331       .  A
H1553      C1576   1.075       .  S
H1554      C1571   1.079       .  S
N1556     Co1570   2.109       .  S
N1557      N1569   1.333       .  A
N1557      N1573   1.318       .  A
C1558      N1562   1.347       .  A
C1558      C1572   1.476       .  S
C1558      C1710   1.511       .  S
C1559      C1578   1.460       .  S
C1559      H1563   1.082       .  S
N1560      C1571   1.344       .  A
C1564      N1580   1.368       .  A
C1564      C1576   1.463       .  S
C1564      C1612   1.523       .  S
Co1566    Cl1577   2.452       .  S
N1567      C1578   1.357       .  A
C1568      C1693   1.506       .  S
Co1570    Cl1577   2.454       .  S
C1578      C1584   1.491       .  S
C1581      C1582   1.412       .  A
C1581      C1586   1.421       .  A
C1582      C2259   1.411       .  A
C1582      C1587   1.443       .  S
C1583      C2258   1.411       .  A
C1583      C1584   1.414       .  A
C1583      C1590   1.447       .  S
C1584      C2261   1.407       .  A
C1585      C2260   1.407       .  A
C1585      C1586   1.414       .  A
C1585      C2264   1.450   1_545  S
C1586      C1589   1.449       .  S
C1587      N1594   1.154       .  T
C1588      C2261   1.450       .  S
C1588      N1593   1.157       .  T
C1589      N1591   1.156       .  T
C1590      N1592   1.156       .  T
C1595      C1596   1.412       .  A
C1595      C1600   1.410       .  A
C1596      C1597   1.419       .  A
C1596      C1601   1.451       .  S
C1597      C1598   1.423       .  A
C1597      C1604   1.448       .  S
C1598      C1599   1.427       .  A
C1599      C1600   1.408       .  A
C1599      C1602   1.452       .  S
C1600      C1603   1.453       .  S
C1601      N1608   1.157       .  T
C1602      N1607   1.158       .  T
C1603      N1605   1.157       .  T
C1604      N1606   1.157       .  T
C1609      C1610   1.416       .  A
C1609      C1614   1.432       .  A
C1610      C1611   1.433       .  A
C1610      C1615   1.445       .  S
C1611      C2288   1.433       .  A
C1611      C1618   1.447       .  S
C1612      C2287   1.433       .  A
C1612      C1613   1.410       .  A
C1613      C2290   1.410       .  A
C1613      C1616   1.451       .  S
C1614      C2289   1.410   1_545  A
C1614      C1617   1.451       .  S
C1615      N1622   1.156       .  T
C1616      N1621   1.157       .  T
C1617      N1619   1.158   1_545  T
C1618      N1620   1.158       .  T
C1623      C1624   1.434       .  A
C1623      C1628   1.409       .  A
C1624      C1625   1.435       .  A
C1624      C1629   1.448       .  S
C1625      C1626   1.413       .  A
C1625      C1632   1.438       .  S
C1626      C1627   1.426       .  A
C1627      C1628   1.401       .  A
C1627      C1630   1.450       .  S
C1628      C1631   1.448       .  S
C1630      N1635   1.158       .  T
C1631      N1633   1.157       .  T
C1632      N1634   1.156       .  T
C1637      C2314   1.414       .  A
C1637      C1642   1.407       .  A
C1638      C2313   1.414       .  A
C1638      C1639   1.420       .  A
C1638      C1643   1.443       .  S
C1639      C1640   1.413       .  A
C1639      C1646   1.445       .  S
C1640      C1641   1.421       .  A
C1641      C2318   1.417       .  A
C1641      C1644   1.441       .  S
C1642      C2317   1.417       .  A
C1642      C1645   1.450   1_565  S
C1644      N1649   1.153       .  T
C1645      N1647   1.157       .  T
C1646      N1648   1.155       .  T
C1651      C1652   1.424       .  A
C1651      C1656   1.423       .  A
C1652      C1653   1.420       .  A
C1652      C1657   1.449       .  S
C1653      C1654   1.418       .  A
C1653      C1660   1.453       .  S
C1654      C1655   1.413       .  A
C1655      C1656   1.410       .  A
C1655      C1658   1.448       .  S
C1656      C1659   1.453       .  S
C1657      N1664   1.157       .  T
C1658      N1663   1.157       .  T
C1659      N1661   1.157       .  T
C1660      N1662   1.157       .  T
C1665      C2342   1.414       .  A
C1665      C1670   1.391       .  A
C1666      C2341   1.414       .  A
C1666      C1667   1.418       .  A
C1666      C1671   1.454       .  S
C1667      C1668   1.427       .  A
C1667      C1674   1.445       .  S
C1668      C1669   1.432       .  A
C1669      C2346   1.402       .  A
C1669      C1672   1.438       .  S
C1670      C2345   1.402       .  A
C1670      C1673   1.458   1_565  S
C1671      N1678   1.158       .  T
C1672      N1677   1.155       .  T
C1673      N1675   1.157       .  T
C1674      N1676   1.157       .  T
C1679      C1680   1.422       .  A
C1679      C1684   1.419       .  A
C1680      C1681   1.404       .  A
C1680      C1685   1.451       .  S
C1681      C1682   1.410       .  A
C1681      C1688   1.450       .  S
C1682      C1683   1.417       .  A
C1683      C1684   1.419       .  A
C1683      C1686   1.452       .  S
C1684      C1687   1.449       .  S
C1685      N1692   1.157       .  T
C1686      N1691   1.157       .  T
C1687      N1689   1.157       .  T
C1688      N1690   1.157       .  T
C1693      C1694   1.401       .  A
C1693      C1698   1.416       .  A
C1694      C1695   1.415       .  A
C1694      C1699   1.454       .  S
C1695      C1696   1.417       .  A
C1695      C1702   1.423       .  S
C1696      C1697   1.399       .  A
C1697      C1698   1.415       .  A
C1697      C1700   1.450       .  S
C1698      C1701   1.420       .  S
C1699      N1706   1.157       .  T
C1700      N1705   1.157       .  T
C1701      N1703   1.147       .  T
C1702      N1704   1.149       .  T
C1707      C1708   1.437       .  A
C1707      C1712   1.430       .  A
C1708      C1709   1.442       .  A
C1708      C1713   1.442       .  S
C1709      C1710   1.420       .  A
C1709      C1716   1.448       .  S
C1710      C1711   1.403       .  A
C1711      C1712   1.395       .  A
C1711      C1714   1.453       .  S
C1712      C1715   1.446       .  S
C1713      N1720   1.158       .  T
C1714      N1719   1.157   1_554  T
C1715      N1717   1.158   1_554  T
C1716      N1718   1.157       .  T
C1721      C1722   1.432       .  A
C1721      C1726   1.442       .  A
C1722      C1723   1.419       .  A
C1722      C1727   1.433       .  S
C1723      C1724   1.398       .  A
C1723      C1730   1.456       .  S
C1724      C1725   1.394       .  A
C1725      C1726   1.420       .  A
C1725      C1728   1.452       .  S
C1726      C1729   1.441       .  S
C1727      N1734   1.156       .  T
C1728      N1733   1.157       .  T
C1729      N1731   1.157       .  T
C1730      N1732   1.157       .  T
C1735      C1736   1.403       .  A
C1735      C1740   1.410       .  A
C1736      C1737   1.402       .  A
C1736      C1741   1.445       .  S
C1737      C1738   1.409       .  A
C1737      C1744   1.433       .  S
C1738      C1739   1.413       .  A
C1739      C1740   1.419       .  A
C1739      C1742   1.437       .  S
C1740      C1743   1.447       .  S
C1741      N1748   1.156       .  T
C1742      N1747   1.154       .  T
C1743      N1745   1.157       .  T
C1744      N1746   1.149       .  T
C1749      C1750   1.415       .  A
C1749      C1754   1.392       .  A
C1750      C1751   1.439       .  A
C1750      C1755   1.452       .  S
C1751      C1752   1.432       .  A
C1751      C1758   1.444       .  S
C1752      C2140   1.580   1_554  S
C1752      C1753   1.430       .  A
C1753      C1754   1.394       .  A
C1753      C2432   1.444   1_554  S
C1754      C1757   1.453       .  S
C1755      N1762   1.157       .  T
C1756      C2429   1.444   1_556  S
C1756      N1761   1.157       .  T
C1757      N2435   1.157       .  T
C1758      N1760   1.157       .  T
N1759      C2433   1.157       .  T
C1763      C2139   1.511   1_554  S
C1763      C1764   1.435       .  A
C1763      C1768   1.413       .  A
C1764      C1765   1.422       .  A
C1764      C1769   1.453       .  S
C1765      C1766   1.410       .  A
C1765      C1772   1.450       .  S
C1766      C1767   1.413       .  A
C1767      C1768   1.398       .  A
C1767      C1770   1.456       .  S
C1768      C1771   1.449   1_554  S
C1769      N1776   1.158       .  T
C1770      N1775   1.158   1_554  T
C1771      N1773   1.156       .  T
C1772      N1774   1.157       .  T
C1777      C1778   1.427       .  A
C1777      C1782   1.426       .  A
C1778      C1779   1.419   1_545  A
C1778      C2459   1.451   1_545  S
C1779      C1780   1.416   1_565  A
C1779      C2462   1.453       .  S
C1780      C1781   1.400       .  A
C1781      C1782   1.413       .  A
C1781      C1784   1.440   1_556  S
C1782      C1785   1.445       .  S
C1783      C2454   1.451       .  S
C1783      N1790   1.157       .  T
C1784      N1789   1.152       .  T
C1785      N1787   1.157       .  T
C1786      C2455   1.453       .  S
C1786      N1788   1.157       .  T
C1791      C1792   1.405       .  A
C1791      C1796   1.406       .  A
C1792      C1793   1.412       .  A
C1792      C1797   1.456   1_556  S
C1793      C1794   1.439       .  A
C1793      C1800   1.449   1_556  S
C1794      C1795   1.440       .  A
C1795      C1796   1.430       .  A
C1795      C1798   1.437   1_545  S
C1796      C1799   1.456       .  S
C1797      N1804   1.157       .  T
C1798      N1803   1.156       .  T
C1799      N1801   1.158       .  T
C1800      N1802   1.159       .  T
C1805      C2482   1.415       .  A
C1805      C1810   1.394       .  A
C1806      C2481   1.415       .  A
C1806      C1807   1.417       .  A
C1806      C1811   1.454       .  S
C1807      C1808   1.428       .  A
C1807      C1814   1.445       .  S
C1808      C1809   1.434       .  A
C1809      C2486   1.408       .  A
C1809      C1812   1.443       .  S
C1810      C2485   1.408       .  A
C1810      C1813   1.456   1_565  S
C1811      N1818   1.158       .  T
C1812      N1817   1.156       .  T
C1813      N1815   1.157       .  T
C1814      N1816   1.157       .  T
C1819      C1820   1.418       .  A
C1819      C1824   1.423       .  A
C1820      C1821   1.408       .  A
C1820      C1825   1.449       .  S
C1821      C1822   1.423       .  A
C1821      C1828   1.452       .  S
C1822      C1823   1.421       .  A
C1823      C1824   1.424       .  A
C1823      C1826   1.449       .  S
C1824      C1827   1.448       .  S
C1825      N1832   1.158       .  T
C1826      N1831   1.157       .  T
C1827      N1829   1.157       .  T
C1828      N1830   1.157       .  T
C1833      C1834   1.419       .  A
C1833      C1838   1.411       .  A
C1834      C1835   1.414       .  A
C1834      C1839   1.442       .  S
C1835      C2512   1.406       .  A
C1835      C1842   1.450       .  S
C1836      C2511   1.406       .  A
C1836      C1837   1.410       .  A
C1837      C2514   1.413       .  A
C1837      C1840   1.445       .  S
C1838      C2513   1.413       .  A
C1838      C1841   1.442       .  S
C1839      N1846   1.153       .  T
C1840      N1845   1.156   1_565  T
C1841      N1843   1.155       .  T
C1842      N1844   1.157       .  T
C1847      C1848   1.421       .  A
C1847      C1852   1.423       .  A
C1848      C1849   1.408       .  A
C1848      C1853   1.451       .  S
C1849      C1850   1.412       .  A
C1849      C1856   1.448       .  S
C1850      C1851   1.414       .  A
C1851      C1852   1.420       .  A
C1851      C1854   1.452       .  S
C1852      C1855   1.447       .  S
C1853      N1860   1.157       .  T
C1854      N1859   1.157       .  T
C1855      N1857   1.157       .  T
C1856      N1858   1.156       .  T
C1861      C1862   1.422       .  A
C1861      C1866   1.412       .  A
C1862      C2539   1.420       .  A
C1862      C1867   1.448       .  S
C1863      C2538   1.420       .  A
C1863      C1864   1.409       .  A
C1863      C1870   1.449       .  S
C1864      C2541   1.415       .  A
C1865      C2540   1.415       .  A
C1865      C1866   1.417       .  A
C1865      C1868   1.438       .  S
C1866      C1869   1.447       .  S
C1867      N1874   1.156       .  T
C1868      N1873   1.152       .  T
C1869      N1871   1.156       .  T
C1870      N1872   1.157       .  T
C1875      C1876   1.417       .  A
C1875      C1880   1.424       .  A
C1876      C1877   1.413       .  A
C1876      C1881   1.447       .  S
C1877      C1878   1.418       .  A
C1877      C1884   1.449       .  S
C1878      C1879   1.420       .  A
C1879      C1880   1.425       .  A
C1879      C1882   1.449       .  S
C1880      C1883   1.450       .  S
C1881      N1888   1.158       .  T
C1882      N1887   1.157       .  T
C1883      N1885   1.157       .  T
C1884      N1886   1.156       .  T
C1889      C1890   1.440       .  A
C1889      C1894   1.423       .  A
C1890      C2567   1.414       .  A
C1890      C1895   1.448       .  S
C1891      C2566   1.414       .  A
C1891      C1892   1.401       .  A
C1891      C1898   1.454       .  S
C1892      C2569   1.416       .  A
C1893      C2568   1.416       .  A
C1893      C1894   1.410       .  A
C1893      C1896   1.452       .  S
C1894      C1897   1.444       .  S
C1895      N1902   1.157       .  T
C1896      N1901   1.158       .  T
C1897      N1899   1.157       .  T
C1898      N1900   1.157       .  T
C1903      C1904   1.419       .  A
C1903      C1908   1.415       .  A
C1904      C1905   1.404       .  A
C1904      C1909   1.451       .  S
C1905      C1906   1.410       .  A
C1905      C1912   1.447       .  S
C1906      C1907   1.414       .  A
C1907      C1908   1.419       .  A
C1907      C1910   1.446       .  S
C1908      C1911   1.450       .  S
C1909      N1916   1.156       .  T
C1910      N1915   1.157       .  T
C1911      N1913   1.158       .  T
C1912      N1914   1.155       .  T
C1917      C1918   1.414       .  A
C1917      C1922   1.420       .  A
C1918      C1919   1.407       .  A
C1918      C1923   1.452       .  S
C1919      C1920   1.421       .  A
C1919      C1926   1.454       .  S
C1920      C1921   1.411       .  A
C1921      C1922   1.412       .  A
C1921      C1924   1.447       .  S
C1922      C1925   1.453       .  S
C1923      N1930   1.157       .  T
C1924      N1929   1.157       .  T
C1925      N1927   1.157       .  T
C1926      N1928   1.157       .  T
C1931      C1932   1.425       .  A
C1931      C1936   1.426       .  A
C1932      C1933   1.411       .  A
C1932      C1937   1.448       .  S
C1933      C1934   1.414       .  A
C1933      C1940   1.454       .  S
C1934      C1935   1.411       .  A
C1935      C1936   1.428       .  A
C1935      C1938   1.449       .  S
C1936      C1939   1.445       .  S
C1937      N1944   1.158       .  T
C1938      N1943   1.157       .  T
C1939      N1941   1.158   1_655  T
C1940      N1942   1.157       .  T
C1945      C1946   1.411       .  A
C1945      C1950   1.415       .  A
C1946      C1947   1.429       .  A
C1946      C1951   1.450       .  S
C1947      C1948   1.428       .  A
C1947      C1954   1.444       .  S
C1948      C1949   1.426       .  A
C1949      C1950   1.408       .  A
C1949      C1952   1.447       .  S
C1950      C1953   1.456       .  S
C1951      N1958   1.157       .  T
C1952      N1957   1.158       .  T
C1953      N1955   1.157       .  T
C1954      N1956   1.158       .  T
C1959      C1960   1.429       .  A
C1959      C1964   1.417       .  A
C1960      C1961   1.410       .  A
C1960      C1965   1.453       .  S
C1961      C1962   1.408       .  A
C1961      C1968   1.454       .  S
C1962      C1963   1.418       .  A
C1963      C1964   1.417       .  A
C1963      C1966   1.455       .  S
C1964      C1967   1.445       .  S
C1965      N1972   1.158       .  T
C1966      N1971   1.157   1_655  T
C1967      N1969   1.156       .  T
C1968      N1970   1.157       .  T
C1973      C1974   1.421       .  A
C1973      C1978   1.418       .  A
C1974      C1975   1.431       .  A
C1974      C2655   1.449   1_545  S
C1975      C1976   1.426       .  A
C1975      C2658   1.446   1_545  S
C1976      C2030   1.531       .  S
C1976      C1977   1.409       .  A
C1977      C1978   1.400       .  A
C1977      C1980   1.448       .  S
C1978      C1981   1.451       .  S
C1979      C2650   1.449       .  S
C1979      N1986   1.157       .  T
C1980      N1985   1.156       .  T
C1981      N1983   1.158       .  T
C1982      C2651   1.446       .  S
C1982      N1984   1.158       .  T
C1987      C1988   1.398   1_545  A
C1987      C1992   1.409       .  A
C1988      C1989   1.402       .  A
C1988      C1993   1.453       .  S
C1989      C1990   1.420   1_565  A
C1989      C2672   1.439       .  S
C1990      C1991   1.416       .  A
C1991      C1992   1.408       .  A
C1991      C1994   1.445       .  S
C1992      C1995   1.449       .  S
C1993      N2000   1.157       .  T
C1995      N1997   1.156       .  T
C1996      C2665   1.439       .  S
C1996      N1998   1.153       .  T
C2001      C2002   1.426       .  A
C2001      C2006   1.424       .  A
C2002      C2003   1.392       .  A
C2002      C2007   1.450       .  S
C2003      C2004   1.397       .  A
C2003      C2010   1.451       .  S
C2004      C2005   1.410       .  A
C2005      C2006   1.419       .  A
C2005      C2684   1.448       .  S
C2006      C2685   1.449       .  S
C2007      N2014   1.158       .  T
C2008      C2681   1.448   1_545  S
C2008      N2013   1.157       .  T
C2009      C2682   1.449   1_545  S
C2009      N2011   1.157       .  T
C2010      N2012   1.156       .  T
C2015      C2029   1.529       .  S
C2015      C2016   1.428       .  A
C2015      C2020   1.426       .  A
C2016      C2017   1.410       .  A
C2016      C2021   1.441       .  S
C2017      C2018   1.397       .  A
C2017      C2024   1.453       .  S
C2018      C2019   1.407       .  A
C2019      C2020   1.414       .  A
C2019      C2022   1.454       .  S
C2020      C2023   1.443       .  S
C2021      N2704   1.154       .  T
C2022      N2027   1.157       .  T
C2024      N2026   1.157       .  T
N2028      C2697   1.154       .  T
C2029      C2666   1.504       .  S
C2030      C2680   1.496   1_545  S
C2031      C2607   1.569       .  S
C2031      C2638   1.503       .  S
C2032      C2593   1.502       .  S
C2032      C2624   1.567       .  S
C2033      N2051   1.352       .  A
C2033      C2070   1.446       .  S
C2033      C2694   1.480       .  S
N2034      N2051   1.329       .  A
N2034      N2056   1.315       .  A
N2034     Co2071   2.095       .  S
C2035      N2060   1.360       .  A
C2035      C2073   1.486       .  S
C2035      H2080   1.081       .  S
H2036      C2077   1.077       .  S
C2037      N2061   1.344       .  A
C2037      C2041   1.478       .  S
C2037      H2066   1.082       .  S
Co2038     N2056   2.053       .  S
Co2038     N2046   2.036       .  S
Co2038     N2078   2.043       .  S
Co2038     N2054   2.056       .  S
Co2038    Cl2082   2.444       .  S
N2039      C2077   1.350       .  A
N2039      N2046   1.311       .  A
N2039     Co2040   2.110       .  S
Co2040     N2043   2.079       .  S
Co2040     N2060   2.121       .  S
Co2040     N2047   2.087       .  S
Co2040    Cl2082   2.462       .  S
C2041      N2079   1.348       .  A
C2041      C2582   1.495       .  S
N2042      N2049   1.317       .  A
N2042      N2072   1.329       .  A
N2042     Co2075   2.119       .  S
N2043      N2061   1.323       .  A
N2043      N2079   1.322       .  A
N2044      C2073   1.336       .  A
N2044      N2054   1.311       .  A
H2045      C2070   1.079       .  S
N2046      N2067   1.314       .  A
N2047      N2065   1.324       .  A
N2047      N2052   1.326       .  A
C2048      N2052   1.351       .  A
C2048      C2076   1.481       .  S
C2048      C2551   1.517       .  S
N2049      C2064   1.331       .  A
N2049     Co2071   2.053       .  S
C2050      N2078   1.321       .  A
C2050      C2053   1.449       .  S
C2050      H2084   1.072       .  S
C2053      N2074   1.363       .  A
C2053      C2677   1.500       .  S
N2054      N2060   1.316       .  A
N2055      C2081   1.343       .  A
N2055      N2057   1.324       .  A
N2055     Co2071   2.098       .  S
N2056      C2070   1.334       .  A
N2057      N2085   1.332       .  A
N2057     Co2075   2.131       .  S
H2058      C2081   1.082   1_545  S
H2059      C2076   1.078       .  S
N2061     Co2075   2.119       .  S
N2062      N2074   1.331       .  A
N2062      N2078   1.312       .  A
N2062     Co2071   2.097       .  S
C2063      N2067   1.341       .  A
C2063      C2077   1.485       .  S
C2063      C2635   1.511       .  S
C2064      C2083   1.453       .  S
C2064      H2068   1.078   1_565  S
N2065      C2076   1.347       .  A
N2065     Co2075   2.132       .  S
C2069      N2085   1.360       .  A
C2069      C2081   1.463       .  S
C2069      C2540   1.506   1_565  S
Co2071    Cl2082   2.454       .  S
N2072      C2083   1.364       .  A
C2073      C2621   1.503       .  S
Co2075    Cl2082   2.445       .  S
C2083      C2568   1.499   1_565  S
C2086      N2104   1.348       .  A
C2086      C2123   1.446       .  S
C2086      C2663   1.468       .  S
N2087      N2104   1.326       .  A
N2087      N2109   1.318       .  A
N2087     Co2124   2.074       .  S
C2088      N2113   1.350       .  A
C2088      C2126   1.477       .  S
C2088      H2133   1.081       .  S
H2089      C2130   1.081       .  S
C2090      N2114   1.343       .  A
C2090      C2094   1.475       .  S
C2090      H2119   1.081       .  S
Co2091     N2109   2.061       .  S
Co2091     N2099   2.050       .  S
Co2091     N2131   2.058       .  S
Co2091     N2107   2.055       .  S
Co2091    Cl2135   2.436       .  S
N2092      C2130   1.361       .  A
N2092      N2099   1.316       .  A
N2092     Co2093   2.136       .  S
Co2093     N2096   2.064       .  S
Co2093     N2113   2.099       .  S
Co2093     N2100   2.104       .  S
Co2093    Cl2135   2.472       .  S
C2094      N2132   1.346       .  A
C2094      C2526   1.499       .  S
N2095      N2102   1.321       .  A
N2095      N2125   1.327       .  A
N2095     Co2128   2.094       .  S
N2096      N2114   1.323       .  A
N2096      N2132   1.321       .  A
N2097      C2126   1.338       .  A
N2097      N2107   1.313       .  A
H2098      C2123   1.080       .  S
N2099      N2120   1.315       .  A
N2100      N2118   1.321       .  A
N2100      N2105   1.329       .  A
C2101      N2105   1.357       .  A
C2101      C2129   1.474       .  S
C2101      C2495   1.516       .  S
N2102      C2117   1.342       .  A
N2102     Co2124   2.099       .  S
C2103      N2131   1.328       .  A
C2103      C2106   1.454       .  S
C2103      H2137   1.075       .  S
C2106      N2127   1.366       .  A
C2106      C2649   1.515       .  S
N2107      N2113   1.316       .  A
N2108      C2134   1.332       .  A
N2108      N2110   1.321       .  A
N2108     Co2124   2.042       .  S
N2109      C2123   1.333       .  A
N2110      N2138   1.327       .  A
N2110     Co2128   2.120       .  S
H2111      C2134   1.082       .  S
H2112      C2129   1.076       .  S
N2114     Co2128   2.121       .  S
N2115      N2127   1.337       .  A
N2115      N2131   1.312       .  A
N2115     Co2124   2.117       .  S
C2116      N2120   1.339       .  A
C2116      C2130   1.486       .  S
C2116      C2610   1.507       .  S
C2117      C2136   1.462       .  S
C2117      H2121   1.082       .  S
N2118      C2129   1.338       .  A
N2118     Co2128   2.100       .  S
C2122      N2138   1.358       .  A
C2122      C2134   1.447       .  S
C2122      C2481   1.486       .  S
Co2124    Cl2135   2.462       .  S
N2125      C2136   1.353       .  A
C2126      C2596   1.496       .  S
Co2128    Cl2135   2.427       .  S
C2136      C2512   1.490       .  S
C2139      C2470   1.569       .  S
C2139      C2140   1.414       .  D
C2140      C2456   1.518       .  S
C2141      C2383   1.588   1_556  S
C2141      C2414   1.517       .  S
C2141      C2142   1.413       .  D
C2142      C2372   1.515   1_556  S
C2142      C2397   1.557       .  S
C2143      N2161   1.362       .  A
C2143      C2180   1.453       .  S
C2143      C2467   1.507       .  S
N2144      N2161   1.334       .  A
N2144      N2166   1.316       .  A
N2144     Co2181   2.122       .  S
C2145      N2170   1.351       .  A
C2145      C2183   1.469       .  S
C2145      H2190   1.081       .  S
H2146      C2187   1.080       .  S
C2147      N2171   1.342       .  A
C2147      C2151   1.476       .  S
C2147      H2176   1.080       .  S
Co2148     N2166   2.053       .  S
Co2148     N2156   2.099       .  S
Co2148     N2188   2.091   1_655  S
Co2148    Cl2192   2.446       .  S
N2149      C2187   1.347       .  A
N2149      N2156   1.317       .  A
N2149     Co2150   2.078       .  S
Co2150     N2153   2.067       .  S
Co2150    Cl2192   2.457       .  S
C2151      N2189   1.347       .  A
C2151      C2358   1.495       .  S
N2152      N2159   1.321       .  A
N2152      N2182   1.324       .  A
N2152     Co2185   2.107       .  S
N2153      N2171   1.318       .  A
N2153      N2189   1.320       .  A
N2154      C2183   1.343       .  A
N2154      N2164   1.319       .  A
H2155      C2180   1.079       .  S
N2156      N2177   1.324       .  A
N2157      N2175   1.322       .  A
N2157      N2162   1.321       .  A
C2158      N2162   1.346       .  A
C2158      C2186   1.478       .  S
C2158      C2330   1.503       .  S
N2159      C2174   1.333       .  A
N2159     Co2181   2.044       .  S
C2160      C2163   1.475       .  S
C2160      H2194   1.064       .  S
C2163      N2184   1.358       .  A
C2163      C2453   1.523       .  S
N2164      N2170   1.317       .  A
N2165      C2191   1.347       .  A
N2165      N2167   1.325       .  A
N2166      C2180   1.332       .  A
N2167      N2195   1.328       .  A
H2168      C2191   1.081       .  S
H2169      C2186   1.080       .  S
N2171     Co2185   2.099       .  S
N2172      N2184   1.326       .  A
C2173      N2177   1.353       .  A
C2173      C2187   1.457       .  S
C2173      C2411   1.491       .  S
C2174      C2193   1.447       .  S
C2174      H2178   1.082       .  S
N2175      C2186   1.345       .  A
C2179      N2195   1.352       .  A
C2179      C2191   1.467       .  S
C2179      C2313   1.502       .  S
Co2181    Cl2192   2.458       .  S
N2182      C2193   1.354       .  A
C2183      C2400   1.487       .  S
Co2185    Cl2192   2.444       .  S
C2193      C2341   1.477       .  S
C2196      C2327   1.529       .  S
C2196      C2498   1.532       .  S
C2196      C2197   1.401       .  D
C2197      C2316   1.529       .  S
C2197      C2484   1.537       .  S
C2198      C2355   1.518       .  S
C2198      C2523   1.525       .  S
C2198      C2199   1.392       .  D
C2199      C2344   1.532       .  S
C2199      C2509   1.517       .  S
C2200      C2302   1.568       .  S
C2200      C2554   1.534       .  S
C2200      C2201   1.418       .  D
C2201      C2285   1.567       .  S
C2201      C2537   1.524       .  S
C2202      C2274   1.527       .  S
C2202      C2579   1.509       .  S
C2202      C2203   1.399       .  D
C2203      C2257   1.515       .  S
C2203      C2565   1.539       .  S
C2204      N2222   1.364       .  A
C2204      C2241   1.439       .  S
C2204      C2442   1.492       .  S
N2205      N2222   1.335       .  A
N2205      N2227   1.314       .  A
N2205     Co2242   2.114       .  S
C2206      N2231   1.348       .  A
C2206      C2244   1.474       .  S
C2206      H2251   1.082       .  S
H2207      C2248   1.081       .  S
C2208      N2232   1.343       .  A
C2208      C2212   1.473       .  S
C2208      H2237   1.081       .  S
Co2209     N2227   2.027       .  S
Co2209     N2217   2.088       .  S
Co2209    Cl2253   2.452       .  S
N2210      C2248   1.356       .  A
N2210      N2217   1.315       .  A
N2210     Co2211   2.112       .  S
Co2211     N2214   2.076       .  S
Co2211    Cl2253   2.449       .  S
C2212      N2250   1.346       .  A
C2212      C2271   1.494       .  S
N2213      N2220   1.320       .  A
N2213      N2243   1.327       .  A
N2213     Co2246   2.114       .  S
N2214      N2232   1.323       .  A
N2214      N2250   1.322       .  A
N2215      C2244   1.348       .  A
N2215      N2225   1.326       .  A
H2216      C2241   1.078       .  S
N2217      N2238   1.324       .  A
N2218      N2236   1.324       .  A
N2218      N2223   1.326       .  A
C2219      N2223   1.349       .  A
C2219      C2247   1.481       .  S
C2219      C2299   1.520       .  S
N2220      C2235   1.339       .  A
N2220     Co2242   2.074       .  S
C2221      N2249   1.329       .  A
C2221      C2224   1.455       .  S
C2221      H2255   1.079       .  S
C2224      N2245   1.353       .  A
C2224      C2425   1.489       .  S
N2225      N2231   1.317       .  A
N2226      C2252   1.337       .  A
N2226      N2228   1.319       .  A
N2227      C2241   1.317       .  A
N2228      N2256   1.331       .  A
H2229      C2252   1.075   1_545  S
H2230      C2247   1.079       .  S
N2232     Co2246   2.109       .  S
N2233      N2245   1.333       .  A
N2233      N2249   1.318       .  A
C2234      N2238   1.347       .  A
C2234      C2248   1.476       .  S
C2234      C2386   1.511       .  S
C2235      C2254   1.460       .  S
C2235      H2239   1.082   1_565  S
N2236      C2247   1.344       .  A
C2240      N2256   1.368       .  A
C2240      C2252   1.463       .  S
C2240      C2288   1.523   1_565  S
Co2242    Cl2253   2.452       .  S
N2243      C2254   1.357       .  A
C2244      C2369   1.506       .  S
Co2246    Cl2253   2.454       .  S
C2254      C2260   1.491   1_565  S
C2257      C2258   1.412       .  A
C2257      C2262   1.421       .  A
C2258      C2263   1.443       .  S
C2259      C2260   1.414       .  A
C2259      C2266   1.447       .  S
C2261      C2262   1.415       .  A
C2262      C2265   1.449       .  S
C2263      N2270   1.154       .  T
C2264      N2269   1.157       .  T
C2265      N2267   1.156       .  T
C2266      N2268   1.156       .  T
C2271      C2272   1.412       .  A
C2271      C2276   1.410       .  A
C2272      C2273   1.419       .  A
C2272      C2277   1.451       .  S
C2273      C2274   1.423       .  A
C2273      C2280   1.448       .  S
C2274      C2275   1.427       .  A
C2275      C2276   1.408       .  A
C2275      C2278   1.452       .  S
C2276      C2279   1.453       .  S
C2277      N2284   1.157       .  T
C2278      N2283   1.158       .  T
C2279      N2281   1.157       .  T
C2280      N2282   1.157       .  T
C2285      C2286   1.416       .  A
C2285      C2290   1.432       .  A
C2286      C2287   1.433       .  A
C2286      C2291   1.445       .  S
C2287      C2294   1.447       .  S
C2288      C2289   1.410   1_545  A
C2289      C2292   1.451       .  S
C2290      C2293   1.451       .  S
C2291      N2298   1.156       .  T
C2292      N2297   1.157       .  T
C2293      N2295   1.158       .  T
C2294      N2296   1.158       .  T
C2299      C2300   1.434       .  A
C2299      C2304   1.409       .  A
C2300      C2301   1.435       .  A
C2300      C2305   1.448       .  S
C2301      C2302   1.413       .  A
C2301      C2308   1.438       .  S
C2302      C2303   1.426       .  A
C2303      C2304   1.401       .  A
C2303      C2306   1.450       .  S
C2304      C2307   1.448       .  S
C2306      N2311   1.158       .  T
C2307      N2309   1.157       .  T
C2308      N2310   1.156       .  T
C2313      C2318   1.407       .  A
C2314      C2315   1.420       .  A
C2314      C2319   1.443       .  S
C2315      C2316   1.413       .  A
C2315      C2322   1.445       .  S
C2316      C2317   1.421       .  A
C2317      C2320   1.441       .  S
C2318      C2321   1.450       .  S
C2320      N2325   1.153       .  T
C2321      N2323   1.157       .  T
C2322      N2324   1.155       .  T
C2327      C2328   1.424       .  A
C2327      C2332   1.423       .  A
C2328      C2329   1.420       .  A
C2328      C2333   1.449       .  S
C2329      C2330   1.418       .  A
C2329      C2336   1.453       .  S
C2330      C2331   1.413       .  A
C2331      C2332   1.410       .  A
C2331      C2334   1.448       .  S
C2332      C2335   1.453       .  S
C2333      N2340   1.157       .  T
C2334      N2339   1.157       .  T
C2335      N2337   1.157       .  T
C2336      N2338   1.157       .  T
C2341      C2346   1.391       .  A
C2342      C2343   1.418       .  A
C2342      C2347   1.454       .  S
C2343      C2344   1.427       .  A
C2343      C2350   1.445       .  S
C2344      C2345   1.432       .  A
C2345      C2348   1.438       .  S
C2346      C2349   1.458       .  S
C2347      N2354   1.158       .  T
C2348      N2353   1.155       .  T
C2349      N2351   1.157       .  T
C2350      N2352   1.157       .  T
C2355      C2356   1.422       .  A
C2355      C2360   1.419       .  A
C2356      C2357   1.404       .  A
C2356      C2361   1.451       .  S
C2357      C2358   1.410       .  A
C2357      C2364   1.450       .  S
C2358      C2359   1.417       .  A
C2359      C2360   1.419       .  A
C2359      C2362   1.452       .  S
C2360      C2363   1.449       .  S
C2361      N2368   1.157       .  T
C2362      N2367   1.157       .  T
C2363      N2365   1.157       .  T
C2364      N2366   1.157       .  T
C2369      C2370   1.401       .  A
C2369      C2374   1.416       .  A
C2370      C2371   1.415       .  A
C2370      C2375   1.454       .  S
C2371      C2372   1.417       .  A
C2371      C2378   1.423       .  S
C2372      C2373   1.399       .  A
C2373      C2374   1.415       .  A
C2373      C2376   1.450       .  S
C2374      C2377   1.420       .  S
C2375      N2382   1.157       .  T
C2376      N2381   1.157       .  T
C2377      N2379   1.147       .  T
C2378      N2380   1.149       .  T
C2383      C2384   1.437       .  A
C2383      C2388   1.430       .  A
C2384      C2385   1.442       .  A
C2384      C2389   1.442       .  S
C2385      C2386   1.420       .  A
C2385      C2392   1.448       .  S
C2386      C2387   1.403       .  A
C2387      C2388   1.395       .  A
C2387      C2390   1.453       .  S
C2388      C2391   1.446       .  S
C2389      N2396   1.158       .  T
C2390      N2395   1.157   1_554  T
C2391      N2393   1.158   1_554  T
C2392      N2394   1.157       .  T
C2397      C2398   1.432       .  A
C2397      C2402   1.442       .  A
C2398      C2399   1.419       .  A
C2398      C2403   1.433       .  S
C2399      C2400   1.398       .  A
C2399      C2406   1.456       .  S
C2400      C2401   1.394       .  A
C2401      C2402   1.420       .  A
C2401      C2404   1.452       .  S
C2402      C2405   1.441       .  S
C2403      N2410   1.156       .  T
C2404      N2409   1.157       .  T
C2405      N2407   1.157       .  T
C2406      N2408   1.157       .  T
C2411      C2412   1.403       .  A
C2411      C2416   1.410       .  A
C2412      C2413   1.402       .  A
C2412      C2417   1.445       .  S
C2413      C2414   1.409       .  A
C2413      C2420   1.433       .  S
C2414      C2415   1.413       .  A
C2415      C2416   1.419       .  A
C2415      C2418   1.437       .  S
C2416      C2419   1.447       .  S
C2417      N2424   1.156       .  T
C2418      N2423   1.154       .  T
C2419      N2421   1.157       .  T
C2420      N2422   1.149       .  T
C2425      C2426   1.415       .  A
C2425      C2430   1.392       .  A
C2426      C2427   1.439       .  A
C2426      C2431   1.452       .  S
C2427      C2428   1.432       .  A
C2427      C2434   1.444       .  S
C2428      C2429   1.430       .  A
C2429      C2430   1.394       .  A
C2430      C2433   1.453   1_565  S
C2431      N2438   1.157       .  T
C2432      N2437   1.157       .  T
C2434      N2436   1.157       .  T
C2439      C2440   1.435       .  A
C2439      C2444   1.413       .  A
C2440      C2441   1.422       .  A
C2440      C2445   1.453   1_565  S
C2441      C2442   1.410       .  A
C2441      C2448   1.450       .  S
C2442      C2443   1.413       .  A
C2443      C2444   1.398       .  A
C2443      C2446   1.456       .  S
C2444      C2447   1.449   1_554  S
C2445      N2452   1.158       .  T
C2446      N2451   1.158   1_554  T
C2447      N2449   1.156       .  T
C2448      N2450   1.157   1_565  T
C2453      C2454   1.427       .  A
C2453      C2458   1.426       .  A
C2454      C2455   1.419       .  A
C2455      C2456   1.416       .  A
C2456      C2457   1.400       .  A
C2457      C2458   1.413       .  A
C2457      C2460   1.440   1_556  S
C2458      C2461   1.445       .  S
C2459      N2466   1.157       .  T
C2460      N2465   1.152       .  T
C2461      N2463   1.157       .  T
C2462      N2464   1.157       .  T
C2467      C2468   1.405       .  A
C2467      C2472   1.406       .  A
C2468      C2469   1.412       .  A
C2468      C2473   1.456   1_556  S
C2469      C2470   1.439       .  A
C2469      C2476   1.449   1_556  S
C2470      C2471   1.440       .  A
C2471      C2472   1.430       .  A
C2471      C2474   1.437       .  S
C2472      C2475   1.456       .  S
C2473      N2480   1.157       .  T
C2474      N2479   1.156       .  T
C2475      N2477   1.158       .  T
C2476      N2478   1.159       .  T
C2481      C2486   1.394       .  A
C2482      C2483   1.417       .  A
C2482      C2487   1.454       .  S
C2483      C2484   1.428       .  A
C2483      C2490   1.445       .  S
C2484      C2485   1.434       .  A
C2485      C2488   1.443       .  S
C2486      C2489   1.456       .  S
C2487      N2494   1.158       .  T
C2488      N2493   1.156       .  T
C2489      N2491   1.157       .  T
C2490      N2492   1.157       .  T
C2495      C2496   1.418       .  A
C2495      C2500   1.423       .  A
C2496      C2497   1.408       .  A
C2496      C2501   1.449       .  S
C2497      C2498   1.423       .  A
C2497      C2504   1.452       .  S
C2498      C2499   1.421       .  A
C2499      C2500   1.424       .  A
C2499      C2502   1.449       .  S
C2500      C2503   1.448       .  S
C2501      N2508   1.158       .  T
C2502      N2507   1.157       .  T
C2503      N2505   1.157       .  T
C2504      N2506   1.157       .  T
C2509      C2510   1.419       .  A
C2509      C2514   1.411       .  A
C2510      C2511   1.414       .  A
C2510      C2515   1.442       .  S
C2511      C2518   1.450   1_565  S
C2512      C2513   1.410       .  A
C2513      C2516   1.445       .  S
C2514      C2517   1.442       .  S
C2515      N2522   1.153       .  T
C2516      N2521   1.156       .  T
C2517      N2519   1.155       .  T
C2518      N2520   1.157       .  T
C2523      C2524   1.421       .  A
C2523      C2528   1.423       .  A
C2524      C2525   1.408       .  A
C2524      C2529   1.451       .  S
C2525      C2526   1.412       .  A
C2525      C2532   1.448       .  S
C2526      C2527   1.414       .  A
C2527      C2528   1.420       .  A
C2527      C2530   1.452       .  S
C2528      C2531   1.447       .  S
C2529      N2536   1.157       .  T
C2530      N2535   1.157       .  T
C2531      N2533   1.157       .  T
C2532      N2534   1.156       .  T
C2537      C2538   1.422       .  A
C2537      C2542   1.412       .  A
C2538      C2543   1.448       .  S
C2539      C2540   1.409       .  A
C2539      C2546   1.449   1_545  S
C2541      C2542   1.417       .  A
C2541      C2544   1.438       .  S
C2542      C2545   1.447       .  S
C2543      N2550   1.156       .  T
C2544      N2549   1.152       .  T
C2545      N2547   1.156       .  T
C2546      N2548   1.157       .  T
C2551      C2552   1.417       .  A
C2551      C2556   1.424       .  A
C2552      C2553   1.413       .  A
C2552      C2557   1.447       .  S
C2553      C2554   1.418       .  A
C2553      C2560   1.449       .  S
C2554      C2555   1.420       .  A
C2555      C2556   1.425       .  A
C2555      C2558   1.449       .  S
C2556      C2559   1.450       .  S
C2557      N2564   1.158       .  T
C2558      N2563   1.157       .  T
C2559      N2561   1.157       .  T
C2560      N2562   1.156       .  T
C2565      C2566   1.440       .  A
C2565      C2570   1.423       .  A
C2566      C2571   1.448       .  S
C2567      C2568   1.401       .  A
C2567      C2574   1.454   1_545  S
C2569      C2570   1.410       .  A
C2569      C2572   1.452       .  S
C2570      C2573   1.444       .  S
C2571      N2578   1.157       .  T
C2572      N2577   1.158       .  T
C2573      N2575   1.157       .  T
C2574      N2576   1.157       .  T
C2579      C2580   1.419       .  A
C2579      C2584   1.415       .  A
C2580      C2581   1.404       .  A
C2580      C2585   1.451       .  S
C2581      C2582   1.410       .  A
C2581      C2588   1.447       .  S
C2582      C2583   1.414       .  A
C2583      C2584   1.419       .  A
C2583      C2586   1.446       .  S
C2584      C2587   1.450       .  S
C2585      N2592   1.156       .  T
C2586      N2591   1.157       .  T
C2587      N2589   1.158       .  T
C2588      N2590   1.155       .  T
C2593      C2594   1.414       .  A
C2593      C2598   1.420       .  A
C2594      C2595   1.407       .  A
C2594      C2599   1.452       .  S
C2595      C2596   1.421       .  A
C2595      C2602   1.454       .  S
C2596      C2597   1.411       .  A
C2597      C2598   1.412       .  A
C2597      C2600   1.447       .  S
C2598      C2601   1.453       .  S
C2599      N2606   1.157       .  T
C2600      N2605   1.157       .  T
C2601      N2603   1.157       .  T
C2602      N2604   1.157       .  T
C2607      C2608   1.424       .  A
C2607      C2612   1.426       .  A
C2608      C2609   1.411       .  A
C2608      C2613   1.448       .  S
C2609      C2610   1.414       .  A
C2609      C2616   1.454       .  S
C2610      C2611   1.411       .  A
C2611      C2612   1.428       .  A
C2611      C2614   1.449       .  S
C2612      C2615   1.445       .  S
C2613      N2620   1.158       .  T
C2614      N2619   1.157       .  T
C2615      N2617   1.158   1_655  T
C2616      N2618   1.157       .  T
C2621      C2622   1.411       .  A
C2621      C2626   1.415       .  A
C2622      C2623   1.429       .  A
C2622      C2627   1.450       .  S
C2623      C2624   1.428       .  A
C2623      C2630   1.444       .  S
C2624      C2625   1.426       .  A
C2625      C2626   1.408       .  A
C2625      C2628   1.447       .  S
C2626      C2629   1.456       .  S
C2627      N2634   1.157       .  T
C2628      N2633   1.158       .  T
C2629      N2631   1.157       .  T
C2630      N2632   1.158       .  T
C2635      C2636   1.429       .  A
C2635      C2640   1.417       .  A
C2636      C2637   1.410       .  A
C2636      C2641   1.453       .  S
C2637      C2638   1.408       .  A
C2637      C2644   1.454       .  S
C2638      C2639   1.418       .  A
C2639      C2640   1.417       .  A
C2639      C2642   1.455       .  S
C2640      C2643   1.445       .  S
C2641      N2648   1.158       .  T
C2642      N2647   1.157   1_655  T
C2643      N2645   1.156       .  T
C2644      N2646   1.157       .  T
C2649      C2650   1.421       .  A
C2649      C2654   1.418       .  A
C2650      C2651   1.431       .  A
C2651      C2652   1.426       .  A
C2652      C2653   1.409       .  A
C2653      C2654   1.400       .  A
C2653      C2656   1.448       .  S
C2654      C2657   1.451       .  S
C2655      N2662   1.157       .  T
C2656      N2661   1.156       .  T
C2657      N2659   1.158       .  T
C2658      N2660   1.158       .  T
C2663      C2664   1.398       .  A
C2663      C2668   1.409       .  A
C2664      C2665   1.402       .  A
C2664      C2669   1.453       .  S
C2665      C2666   1.420       .  A
C2666      C2667   1.416       .  A
C2667      C2668   1.408       .  A
C2667      C2670   1.445       .  S
C2668      C2671   1.449       .  S
C2669      N2676   1.157       .  T
C2671      N2673   1.156       .  T
C2672      N2674   1.153       .  T
C2677      C2678   1.426       .  A
C2677      C2682   1.424       .  A
C2678      C2679   1.392       .  A
C2678      C2683   1.450       .  S
C2679      C2680   1.397       .  A
C2679      C2686   1.451       .  S
C2680      C2681   1.410       .  A
C2681      C2682   1.419       .  A
C2683      N2690   1.158       .  T
C2684      N2689   1.157       .  T
C2685      N2687   1.157       .  T
C2686      N2688   1.156       .  T
C2691      C2692   1.428   1_565  A
C2691      C2696   1.426       .  A
C2692      C2693   1.410       .  A
C2692      C2697   1.441       .  S
C2693      C2694   1.397   1_545  A
C2693      C2700   1.453       .  S
C2694      C2695   1.407       .  A
C2695      C2696   1.414       .  A
C2695      C2698   1.454       .  S
C2696      C2699   1.443       .  S
C2698      N2703   1.157       .  T
C2700      N2702   1.157       .  T
