geometry optimzed in LAMMPS
_audit_creation_date              2020-12-01 
_audit_creation_method            'lammps2cif' 
_symmetry_space_group_name_H-M    'P1' 
_symmetry_Int_Tables_number       1 
_symmetry_cell_setting            triclinic 
loop_ 
_symmetry_equiv_pos_as_xyz 
  x,y,z 
_cell_length_a                    36.55218235 
_cell_length_b                    36.699279382107235 
_cell_length_c                    30.809484702036464 
_cell_angle_alpha                 90.93030952101212 
_cell_angle_beta                  90.31832436693628 
_cell_angle_gamma                 90.00804873195459 
loop_ 
_atom_site_label 
_atom_site_type_symbol 
_atom_site_fract_x 
_atom_site_fract_y 
_atom_site_fract_z 
_atom_site_charge 
O1          O  0.95951997  0.79913553  0.02904112    -0.72200
O2          O  0.03583515  0.87001632  0.03056223    -0.72400
O3          O  0.96230600  0.87263950  0.03132554    -0.72300
O4          O  0.03242783  0.79662546  0.02977684    -0.72300
O5          O  0.03506981  0.79870900  0.46220443    -0.72200
O6          O  0.96258459  0.87366087  0.46234968    -0.72300
O7          O  0.03644256  0.87208315  0.46316919    -0.72200
O8          O  0.96224328  0.79983636  0.46063703    -0.72400
V9          V  0.99752293  0.83472603  0.02879872     1.35200
V10         V  0.99900983  0.83623522  0.46345921     1.35200
C11         C  0.94753901  0.78618377  0.99330651     0.77000
C12         C  0.04970140  0.88356500  0.49876974     0.77100
C13         C  0.94995083  0.88572047  0.99657724     0.77000
C14         C  0.04594668  0.78477047  0.49731793     0.76900
O15         O  0.83595501  0.93086050  0.46686144    -0.72200
O16         O  0.91173734  0.00232488  0.46319462    -0.72400
O17         O  0.90991635  0.92877867  0.46361862    -0.72300
O18         O  0.83774328  0.00384682  0.46584307    -0.72300
O19         O  0.83936324  0.00300756  0.03777048    -0.72200
O20         O  0.91120592  0.92777635  0.03414784    -0.72300
O21         O  0.91300272  0.00114155  0.03483731    -0.72200
O22         O  0.83753671  0.93053087  0.03832437    -0.72400
V23         V  0.87397944  0.96647956  0.46620249     1.35200
V24         V  0.87537583  0.96556217  0.03487031     1.35200
C25         C  0.82293140  0.92100374  0.50285503     0.77000
C26         C  0.92405840  0.01353284  0.99926019     0.77100
C27         C  0.92279130  0.91615128  0.49848890     0.77000
C28         C  0.82444597  0.01393422  0.00315799     0.76900
O29         O  0.04330067  0.12401472  0.03302017    -0.72200
O30         O  0.96708840  0.05318428  0.03406002    -0.72400
O31         O  0.04053656  0.05053216  0.03340193    -0.72300
O32         O  0.97036823  0.12667366  0.03463172    -0.72300
O33         O  0.97378293  0.12723528  0.46138486    -0.72200
O34         O  0.04153946  0.04858593  0.46313560    -0.72300
O35         O  0.96800094  0.05357933  0.46216864    -0.72200
O36         O  0.04622321  0.12182328  0.46174048    -0.72400
V37         V  0.00526694  0.08846848  0.03242128     1.35200
V38         V  0.00732459  0.08766041  0.46345113     1.35200
C39         C  0.05537097  0.13582855  0.99746575     0.77000
C40         C  0.95557354  0.04183622  0.49751367     0.77100
C41         C  0.05143428  0.03667046  0.99800325     0.77000
C42         C  0.96234417  0.14119535  0.49656104     0.76900
O43         O  0.16478257  0.92131735  0.02937340    -0.72200
O44         O  0.09134732  0.99469695  0.03259151    -0.72400
O45         O  0.09088044  0.92145244  0.03073731    -0.72300
O46         O  0.16499603  0.99350021  0.03269082    -0.72300
O47         O  0.16801575  0.99361075  0.46721450    -0.72200
O48         O  0.09273430  0.92214911  0.46448924    -0.72300
O49         O  0.09437613  0.99516273  0.46476607    -0.72200
O50         O  0.16674887  0.92126753  0.46602040    -0.72400
V51         V  0.12782864  0.95769250  0.02996210     1.35200
V52         V  0.13032745  0.95801160  0.46699634     1.35200
C53         C  0.17852550  0.91052596  0.99370377     0.77000
C54         C  0.08155324  0.00809861  0.49969923     0.77100
C55         C  0.07779896  0.90939185  0.99535892     0.77000
C56         C  0.18112198  0.00543342  0.50281859     0.76900
C57         C  0.15506597  0.59576280  0.46409979     0.86100
C58         C  0.12764835  0.62738227  0.46495730    -0.54200
C59         C  0.13189168  0.65077198  0.00077498     0.09000
C60         C  0.16394295  0.64155108  0.03158178     0.20000
C61         C  0.19306023  0.61353397  0.46766308    -0.54900
C62         C  0.19750159  0.63873714  0.00149481     0.09100
C63         C  0.15043792  0.57761734  0.50852360    -0.54400
C64         C  0.15643369  0.60202995  0.04567053     0.09700
H65         H  0.10754991  0.63149466  0.43937430     0.14200
H66         H  0.16797907  0.66137888  0.05869886    -0.00100
H67         H  0.21402229  0.60978327  0.44315512     0.14500
H68         H  0.14686786  0.54969198  0.01795940     0.14300
C69         C  0.35945344  0.78432275  0.03295813     0.86100
C70         C  0.33378420  0.81745076  0.03317425    -0.54200
C71         C  0.30821733  0.81496994  0.50798913     0.09000
C72         C  0.31194336  0.78445308  0.47281858     0.20000
C73         C  0.33460116  0.75053744  0.02953166    -0.54900
C74         C  0.31005372  0.74874490  0.49869058     0.09100
C75         C  0.37738894  0.78554333  0.98793292    -0.54400
C76         C  0.35201028  0.78724518  0.45701845     0.09700
H77         H  0.33647398  0.83911183  0.05716622     0.14200
H78         H  0.29165777  0.78542032  0.44599342    -0.00100
H79         H  0.33587159  0.72859453  0.05275276     0.14500
H80         H  0.40606566  0.78527852  0.48184868     0.14300
O81         O  0.53835580  0.77174960  0.21452410    -0.72200
O82         O  0.45846082  0.76734673  0.29224701    -0.72400
O83         O  0.46609362  0.76456378  0.20531032    -0.72300
O84         O  0.53111921  0.77485216  0.30109321    -0.72300
O85         O  0.52468990  0.83372049  0.29940781    -0.72200
O86         O  0.46095149  0.82352985  0.20262575    -0.72300
O87         O  0.45204152  0.82589968  0.28990928    -0.72200
O88         O  0.53348812  0.83044127  0.21213843    -0.72400
V89         V  0.49834980  0.77082233  0.25332596     1.35200
V90         V  0.49288056  0.82731997  0.25110134     1.35200
C91         C  0.54922909  0.80145895  0.19903530     0.77000
C92         C  0.44164215  0.79560084  0.30494760     0.77100
C93         C  0.45331853  0.79241844  0.18709665     0.77000
C94         C  0.53867084  0.80602107  0.31664260     0.76900
C95         C  0.63731994  0.80683935  0.46587529     0.86100
C96         C  0.66865454  0.83467756  0.46708817    -0.54200
C97         C  0.69176871  0.82982449  0.00256795     0.09000
C98         C  0.68112078  0.79949325  0.03389521     0.20000
C99         C  0.65572384  0.76917157  0.46698748    -0.54900
C100        C  0.67765912  0.76513651  0.00420961     0.09100
C101        C  0.61993411  0.81011351  0.51128723    -0.54400
C102        C  0.64139984  0.80872467  0.04794436     0.09700
H103        H  0.67172961  0.85601348  0.44339262     0.14200
H104        H  0.70098467  0.79741431  0.06099840    -0.00100
H105        H  0.64974306  0.74779074  0.44323334     0.14500
H106        H  0.58924727  0.81845456  0.02001884     0.14300
C107        C  0.82742323  0.60623368  0.03374433     0.86100
C108        C  0.85550392  0.63720586  0.03401954    -0.54200
C109        C  0.85540734  0.66068691  0.50021136     0.09000
C110        C  0.82652992  0.64969856  0.46606753     0.20000
C111        C  0.78991200  0.62517747  0.02930788    -0.54900
C112        C  0.79059517  0.64869000  0.49237723     0.09100
C113        C  0.83145809  0.58680436  0.98969810    -0.54400
C114        C  0.83505731  0.60923563  0.45421482     0.09700
H115        H  0.87592582  0.64077840  0.05948128     0.14200
H116        H  0.82631921  0.66832399  0.43810182    -0.00100
H117        H  0.76700845  0.62112179  0.05083201     0.14500
H118        H  0.84079300  0.55775597  0.48607932     0.14300
C119        C  0.36420364  0.12409697  0.47567234     0.86100
C120        C  0.33777430  0.09152682  0.47908730    -0.54200
C121        C  0.31232742  0.09149358  0.00955821     0.09000
C122        C  0.31679332  0.12680872  0.03742712     0.20000
C123        C  0.33818042  0.15685311  0.47279668    -0.54900
C124        C  0.31462183  0.15750604  0.00371844     0.09100
C125        C  0.38226019  0.12689775  0.52030743    -0.54400
C126        C  0.35730836  0.12643865  0.05294817     0.09700
H127        H  0.33568503  0.06963069  0.45527371     0.14200
H128        H  0.29668975  0.13012017  0.06403336    -0.00100
H129        H  0.33834433  0.17569888  0.44596225     0.14500
H130        H  0.41121600  0.12192578  0.02575292     0.14300
C131        C  0.17103844  0.31982829  0.02889169     0.86100
C132        C  0.14297129  0.28878164  0.02848097    -0.54200
C133        C  0.14591431  0.26757970  0.49373059     0.09000
C134        C  0.17824267  0.27707157  0.46408090     0.20000
C135        C  0.20860381  0.30119134  0.02481722    -0.54900
C136        C  0.21142097  0.27949632  0.49515068     0.09100
C137        C  0.16616353  0.33812081  0.98455185    -0.54400
C138        C  0.17106330  0.31662962  0.45036897     0.09700
H139        H  0.12333605  0.28491253  0.05436824     0.14200
H140        H  0.18257831  0.25758174  0.43671341    -0.00100
H141        H  0.22997710  0.30420131  0.04922632     0.14500
H142        H  0.16214488  0.36895528  0.47805717     0.14300
O143        O  0.18680769  0.42081522  0.28726757    -0.72200
O144        O  0.18166085  0.49865099  0.20711275    -0.72400
O145        O  0.18135248  0.49362496  0.29390779    -0.72300
O146        O  0.18734503  0.42569656  0.20037890    -0.72300
O147        O  0.12793779  0.42442280  0.19630177    -0.72200
O148        O  0.12237521  0.48604464  0.29567325    -0.72300
O149        O  0.12250100  0.49650067  0.20941401    -0.72200
O150        O  0.12806902  0.41413522  0.28252642    -0.72400
V151        V  0.18320408  0.45960359  0.24712558     1.35200
V152        V  0.12634337  0.45534925  0.24597550     1.35200
C153        C  0.15820873  0.40410274  0.29875865     0.77000
C154        C  0.15109928  0.51114515  0.19467526     0.77100
C155        C  0.15092815  0.50051053  0.31138999     0.77000
C156        C  0.15858443  0.41435932  0.18177172     0.76900
O157        O  0.54076040  0.15621892  0.30229495    -0.72200
O158        O  0.46159258  0.15537395  0.22079009    -0.72400
O159        O  0.46802338  0.15335882  0.30808528    -0.72300
O160        O  0.53497015  0.15814214  0.21516998    -0.72300
O161        O  0.53738957  0.09912169  0.21204992    -0.72200
O162        O  0.46995184  0.09441994  0.30445901    -0.72300
O163        O  0.46408269  0.09650606  0.21738299    -0.72200
O164        O  0.54247103  0.09717985  0.29925952    -0.72400
V165        V  0.50135064  0.15466203  0.26137341     1.35200
V166        V  0.50341170  0.09796433  0.25820362     1.35200
C167        C  0.55412198  0.12669536  0.31601847     0.77000
C168        C  0.44926001  0.12571081  0.20489920     0.77100
C169        C  0.45842510  0.12299278  0.32312026     0.77000
C170        C  0.54797931  0.12949871  0.19805468     0.76900
C171        C  0.64707760  0.13597473  0.04952486     0.86100
C172        C  0.67469592  0.10471031  0.04543314    -0.54200
C173        C  0.69782547  0.11076926  0.50838299     0.09000
C174        C  0.68719293  0.14189852  0.47762345     0.20000
C175        C  0.67162553  0.17008189  0.04529100    -0.54900
C176        C  0.69172716  0.17657763  0.50631870     0.09100
C177        C  0.62459657  0.13520323  0.00736466    -0.54400
C178        C  0.64569801  0.13817079  0.46980692     0.09700
H179        H  0.67994540  0.08567803  0.07137541     0.14200
H180        H  0.70320484  0.14171528  0.44720023    -0.00100
H181        H  0.67610473  0.19055133  0.07032425     0.14500
H182        H  0.59628957  0.13608922  0.50695668     0.14300
C183        C  0.84813631  0.32232666  0.45144280     0.86100
C184        C  0.87896218  0.29418180  0.45558630    -0.54200
C185        C  0.87452039  0.27288516  0.99389972     0.09000
C186        C  0.84128953  0.28208367  0.02269385     0.20000
C187        C  0.81271415  0.29979056  0.45515463    -0.54900
C188        C  0.80821137  0.27649371  0.99215057     0.09100
C189        C  0.84874214  0.34466375  0.49410760    -0.54400
C190        C  0.84379247  0.32354433  0.03086339     0.09700
H191        H  0.89882993  0.28952228  0.43003204     0.14200
H192        H  0.83972639  0.26628602  0.05303813    -0.00100
H193        H  0.79001936  0.29989166  0.43242287     0.14500
H194        H  0.84592700  0.37290602  0.99431651     0.14300
O195        O  0.81127371  0.50190218  0.28666398    -0.72200
O196        O  0.81341193  0.42582508  0.20180207    -0.72400
O197        O  0.81535774  0.42898528  0.28876703    -0.72300
O198        O  0.80982099  0.49858367  0.19966295    -0.72300
O199        O  0.86914418  0.50054852  0.19719623    -0.72200
O200        O  0.87460474  0.43333350  0.28877115    -0.72300
O201        O  0.87260439  0.42782113  0.20139129    -0.72200
O202        O  0.87027552  0.50627373  0.28470070    -0.72400
V203        V  0.81363968  0.46390694  0.24425329     1.35200
V204        V  0.87055783  0.46693670  0.24307094     1.35200
C205        C  0.84011875  0.51727723  0.30038700     0.77000
C206        C  0.84318940  0.41383860  0.18667599     0.77100
C207        C  0.84596215  0.41932817  0.30394549     0.77000
C208        C  0.83857200  0.51105472  0.18288286     0.76900
C209        C  0.81381884  0.34335340  0.09963510    -0.20700
C210        C  0.84553495  0.34142538  0.07447135    -0.07300
C211        C  0.87750497  0.35935263  0.08936216     0.13600
C212        C  0.87626934  0.38106511  0.12728879    -0.20800
C213        C  0.84370762  0.38576090  0.15083943    -0.07300
C214        C  0.81233998  0.36527461  0.13759779     0.13600
C215        C  0.77705039  0.36629592  0.16269358    -0.24100
H216        H  0.78957625  0.32892598  0.08840266     0.14900
H217        H  0.90066037  0.39574297  0.13742569     0.14900
C218        C  0.91295616  0.35598783  0.06499507    -0.24100
H219        H  0.75665432  0.34668983  0.14915502     0.05100
H220        H  0.76461391  0.39382572  0.16120379     0.08300
H221        H  0.78229956  0.35893941  0.19697164     0.08300
H222        H  0.91010018  0.36868589  0.03285558     0.08300
H223        H  0.92031353  0.32678919  0.06081690     0.08300
H224        H  0.93579220  0.36994764  0.08242509     0.05100
C225        C  0.82857574  0.33769059  0.37424558    -0.20700
C226        C  0.85146612  0.34521008  0.41039857    -0.07300
C227        C  0.87718359  0.37415799  0.40684413     0.13600
C228        C  0.87440181  0.39802046  0.37190211    -0.20800
C229        C  0.84833684  0.39263479  0.33893763    -0.07300
C230        C  0.82626628  0.36119659  0.33907289     0.13600
C231        C  0.80113459  0.35151192  0.30156888    -0.24100
H232        H  0.81265072  0.31299905  0.37237527     0.14900
H233        H  0.89284983  0.42112081  0.37042294     0.14900
C234        C  0.90843670  0.38078122  0.43821732    -0.24100
H235        H  0.78775926  0.32463902  0.30584111     0.05100
H236        H  0.81701085  0.35019288  0.27095721     0.08300
H237        H  0.77909978  0.37212652  0.29875048     0.08300
H238        H  0.93449168  0.38204018  0.41992005     0.08300
H239        H  0.91194877  0.35901491  0.46218841     0.08300
H240        H  0.90436791  0.40715942  0.45567278     0.05100
C241        C  0.75347635  0.19330216  0.47989284    -0.20700
C242        C  0.72066448  0.20456255  0.49938941    -0.07300
C243        C  0.71543504  0.23657105  0.01424551     0.13600
C244        C  0.74580097  0.25996279  0.01452900    -0.20800
C245        C  0.77932763  0.24874748  0.99720128    -0.07300
C246        C  0.78295457  0.21715243  0.47544917     0.13600
C247        C  0.81417472  0.20449721  0.44721937    -0.24100
H248        H  0.75653393  0.16567179  0.46765232     0.14900
H249        H  0.74264569  0.28795307  0.02577780     0.14900
C250        C  0.67885264  0.25309527  0.02551470    -0.24100
H251        H  0.80362438  0.19804214  0.41411905     0.05100
H252        H  0.82705318  0.17680616  0.96563492     0.08300
H253        H  0.83587863  0.22518430  0.44379144     0.08300
H254        H  0.67844894  0.26108951  0.06042063     0.08300
H255        H  0.65784227  0.24115134  0.51989623     0.08300
H256        H  0.67436260  0.27779359  0.00580715     0.05100
C257        C  0.60383470  0.10333460  0.42116765    -0.20700
C258        C  0.62727917  0.13334090  0.42676916    -0.07300
C259        C  0.62870320  0.15984686  0.39404037     0.13600
C260        C  0.60560882  0.15626673  0.35735598    -0.20800
C261        C  0.58118608  0.12678992  0.35245380    -0.07300
C262        C  0.58069782  0.09974006  0.38482399     0.13600
C263        C  0.55430313  0.06812429  0.38299739    -0.24100
H264        H  0.60268475  0.08314555  0.44643607     0.14900
H265        H  0.60597871  0.17710462  0.33283167     0.14900
C266        C  0.65290739  0.19292208  0.39870923    -0.24100
H267        H  0.55648337  0.05091525  0.41222947     0.05100
H268        H  0.56022863  0.05043278  0.35433887     0.08300
H269        H  0.52576202  0.07837919  0.38112009     0.08300
H270        H  0.68204690  0.18461444  0.39914801     0.08300
H271        H  0.64638102  0.20798101  0.42925734     0.08300
H272        H  0.64910173  0.21185180  0.37129282     0.05100
C273        C  0.57543148  0.10236965  0.13183565    -0.20700
C274        C  0.57446862  0.13124550  0.16206606    -0.07300
C275        C  0.59881738  0.16071741  0.15744190     0.13600
C276        C  0.62208808  0.16136433  0.12157609    -0.20800
C277        C  0.62266149  0.13309568  0.08989677    -0.07300
C278        C  0.59907262  0.10255213  0.09608774     0.13600
C279        C  0.59793370  0.06964120  0.06574213    -0.24100
H280        H  0.55701717  0.07953690  0.13591040     0.14900
H281        H  0.63934040  0.18496277  0.11913645     0.14900
C282        C  0.60129760  0.19136362  0.19068190    -0.24100
H283        H  0.62474376  0.05566392  0.06495575     0.05100
H284        H  0.58965193  0.07719836  0.03252952     0.08300
H285        H  0.57775288  0.04908077  0.07647906     0.08300
H286        H  0.60653756  0.18009135  0.22336387     0.08300
H287        H  0.57555757  0.20738018  0.19090655     0.08300
H288        H  0.62387930  0.21059087  0.18357319     0.05100
C289        C  0.13334159  0.33913197  0.38988070    -0.20700
C290        C  0.16810877  0.32976374  0.40530257    -0.07300
C291        C  0.19926077  0.34081623  0.38230204     0.13600
C292        C  0.19499535  0.36295018  0.34579031    -0.20800
C293        C  0.16021150  0.37492982  0.33206123    -0.07300
C294        C  0.12879836  0.36128138  0.35349143     0.13600
C295        C  0.09033140  0.37109779  0.34014745    -0.24100
H296        H  0.10959145  0.33117908  0.40835285     0.14900
H297        H  0.21922370  0.37251030  0.32935881     0.14900
C298        C  0.23706206  0.33132865  0.39809094    -0.24100
H299        H  0.06955028  0.35734215  0.36033696     0.05100
H300        H  0.08540628  0.36245409  0.30591791     0.08300
H301        H  0.08600342  0.40090845  0.34403674     0.08300
H302        H  0.23999474  0.30126385  0.39971545     0.08300
H303        H  0.24156943  0.34352798  0.43085845     0.08300
H304        H  0.25857889  0.34183019  0.37626842     0.05100
C305        C  0.15132388  0.37894861  0.06666737    -0.20700
C306        C  0.16700578  0.34387420  0.06975826    -0.07300
C307        C  0.17668393  0.33133408  0.11200606     0.13600
C308        C  0.17491589  0.35550730  0.14763377    -0.20800
C309        C  0.16072063  0.39055496  0.14334902    -0.07300
C310        C  0.14801678  0.40221996  0.10279704     0.13600
C311        C  0.13131544  0.43949651  0.09746497    -0.24100
H312        H  0.14008456  0.38843773  0.03654204     0.14900
H313        H  0.18338165  0.34642894  0.17948949     0.14900
C314        C  0.18789499  0.29270651  0.12209813    -0.24100
H315        H  0.12373096  0.44479121  0.06318021     0.05100
H316        H  0.15111528  0.46081452  0.10818841     0.08300
H317        H  0.10612936  0.44175308  0.11723089     0.08300
H318        H  0.18553015  0.27327657  0.09454077     0.08300
H319        H  0.16992484  0.28203220  0.14792526     0.08300
H320        H  0.21659283  0.29250040  0.13410036     0.05100
C321        C  0.22588284  0.21463341  0.50256870    -0.20700
C322        C  0.23903392  0.25012712  0.49806927    -0.07300
C323        C  0.27711399  0.25364157  0.99649634     0.13600
C324        C  0.30079248  0.22388198  0.00242134    -0.20800
C325        C  0.28759690  0.18791750  0.00334133    -0.07300
C326        C  0.24941528  0.18501393  0.50746789     0.13600
C327        C  0.23281200  0.14767274  0.50893270    -0.24100
H328        H  0.19676990  0.20984457  0.50191403     0.14900
H329        H  0.32997923  0.22871678  0.00544253     0.14900
C330        C  0.29387011  0.29103811  0.99400100    -0.24100
H331        H  0.20244574  0.14842406  0.50736437     0.05100
H332        H  0.23891952  0.12996474  0.02604547     0.08300
H333        H  0.24229609  0.13195947  0.48026773     0.08300
H334        H  0.30758980  0.29799929  0.02529379     0.08300
H335        H  0.27303765  0.31521763  0.48959899     0.08300
H336        H  0.31451147  0.29124249  0.96770087     0.05100
C337        C  0.37936205  0.09454515  0.11828039    -0.20700
C338        C  0.37095877  0.12762542  0.09849770    -0.07300
C339        C  0.38454032  0.16028925  0.11712491     0.13600
C340        C  0.40831587  0.15894463  0.15323769    -0.20800
C341        C  0.41933732  0.12552946  0.17118017    -0.07300
C342        C  0.40292057  0.09295785  0.15453686     0.13600
C343        C  0.41052653  0.05611961  0.17359917    -0.24100
H344        H  0.36949120  0.06944291  0.10335580     0.14900
H345        H  0.41972295  0.18417452  0.16606932     0.14900
C346        C  0.37518874  0.19647169  0.09750617    -0.24100
H347        H  0.39358464  0.03439384  0.15800123     0.05100
H348        H  0.40403537  0.05662470  0.20876844     0.08300
H349        H  0.43960266  0.04853672  0.16859583     0.08300
H350        H  0.34504274  0.20021592  0.09733576     0.08300
H351        H  0.38532251  0.19745447  0.06366983     0.08300
H352        H  0.38766597  0.21952975  0.11609334     0.05100
C353        C  0.43231932  0.15337154  0.38803573    -0.20700
C354        C  0.43567751  0.12144497  0.36271674    -0.07300
C355        C  0.41930342  0.08899525  0.37744495     0.13600
C356        C  0.39810302  0.09019147  0.41515367    -0.20800
C357        C  0.39205250  0.12288496  0.43870822    -0.07300
C358        C  0.41211801  0.15431298  0.42645132     0.13600
C359        C  0.41374955  0.18950839  0.45259946    -0.24100
H360        H  0.44645050  0.17792507  0.37845388     0.14900
H361        H  0.38712721  0.06478968  0.42631396     0.14900
C362        C  0.42350719  0.05284381  0.35389890    -0.24100
H363        H  0.40116509  0.21179046  0.43367508     0.05100
H364        H  0.44279631  0.19659028  0.45936594     0.08300
H365        H  0.40013747  0.18839387  0.48440451     0.08300
H366        H  0.45266774  0.04442068  0.35401386     0.08300
H367        H  0.41327659  0.05501427  0.32002849     0.08300
H368        H  0.40772778  0.03081846  0.36954033     0.05100
C369        C  0.80562252  0.58486979  0.38733621    -0.20700
C370        C  0.83804681  0.59336273  0.40966232    -0.07300
C371        C  0.87151630  0.57965592  0.39343412     0.13600
C372        C  0.87147015  0.55658849  0.35647782    -0.20800
C373        C  0.83872003  0.54619450  0.33536028    -0.07300
C374        C  0.80539147  0.56199527  0.35024395     0.13600
C375        C  0.76909620  0.55459039  0.32827054    -0.24100
H376        H  0.77986341  0.59406358  0.40076810     0.14900
H377        H  0.89726942  0.54536159  0.34537895     0.14900
C378        C  0.90764020  0.58772119  0.41535285    -0.24100
H379        H  0.74675005  0.57121043  0.34277127     0.05100
H380        H  0.76136264  0.52555884  0.33182810     0.08300
H381        H  0.77074440  0.56152545  0.29338699     0.08300
H382        H  0.92039162  0.56186229  0.42596420     0.08300
H383        H  0.90490283  0.60589603  0.44421142     0.08300
H384        H  0.92616134  0.60120644  0.39212059     0.05100
C385        C  0.86206687  0.53322804  0.11309605    -0.20700
C386        C  0.83663674  0.53667554  0.14675005    -0.07300
C387        C  0.81089866  0.56516748  0.14598519     0.13600
C388        C  0.80944491  0.58772783  0.10990572    -0.20800
C389        C  0.83234426  0.58220985  0.07357328    -0.07300
C390        C  0.86128573  0.55641671  0.07738788     0.13600
C391        C  0.89276554  0.55294796  0.04602139    -0.24100
H392        H  0.88311418  0.51245426  0.11489748     0.14900
H393        H  0.79087949  0.61051224  0.11147443     0.14900
C394        C  0.78589157  0.57299632  0.18386043    -0.24100
H395        H  0.91899411  0.55432501  0.06436188     0.05100
H396        H  0.89406618  0.57493627  0.02205595     0.08300
H397        H  0.89123108  0.52625044  0.02863274     0.08300
H398        H  0.80234793  0.57704972  0.21395888     0.08300
H399        H  0.76651205  0.55008019  0.18810056     0.08300
H400        H  0.76932681  0.59798182  0.17896231     0.05100
C401        C  0.72110999  0.72147659  0.45796792    -0.20700
C402        C  0.70368452  0.73329649  0.00373521    -0.07300
C403        C  0.72067306  0.71952414  0.04147831     0.13600
C404        C  0.74860162  0.69355525  0.03722657    -0.20800
C405        C  0.76119937  0.67733301  0.49212652    -0.07300
C406        C  0.74659858  0.69297511  0.45413701     0.13600
C407        C  0.75562964  0.67981375  0.40895989    -0.24100
H408        H  0.71154429  0.73403232  0.42849766     0.14900
H409        H  0.76236667  0.68466429  0.06646298     0.14900
C410        C  0.70899202  0.72926908  0.08697616    -0.24100
H411        H  0.72992672  0.67338200  0.39102065     0.05100
H412        H  0.73697690  0.64001048  0.92054836     0.08300
H413        H  0.77056466  0.70142695  0.39152309     0.08300
H414        H  0.68299009  0.74436339  0.08795077     0.08300
H415        H  0.72748856  0.73678567  0.60180879     0.08300
H416        H  0.70423398  0.70395371  0.10541517     0.05100
C417        C  0.61360779  0.77303615  0.10647869    -0.20700
C418        C  0.62636262  0.80684005  0.09265812    -0.07300
C419        C  0.61636361  0.83854562  0.11625815     0.13600
C420        C  0.59266662  0.83583385  0.15201597    -0.20800
C421        C  0.57837534  0.80205036  0.16488811    -0.07300
C422        C  0.59026694  0.76998154  0.14235899     0.13600
C423        C  0.57750323  0.73230136  0.15405066    -0.24100
H424        H  0.61996218  0.74894166  0.08716483     0.14900
H425        H  0.58436022  0.86048223  0.16909405     0.14900
C426        C  0.62992035  0.87538297  0.10289985    -0.24100
H427        H  0.58983379  0.71087981  0.13285260     0.05100
H428        H  0.54737017  0.73018520  0.15024020     0.08300
H429        H  0.58566575  0.72629284  0.18794476     0.08300
H430        H  0.62125360  0.88099983  0.06906500     0.08300
H431        H  0.66017684  0.87589360  0.10511272     0.08300
H432        H  0.61914989  0.89751240  0.12426545     0.05100
C433        C  0.60047516  0.80249130  0.34791096    -0.20700
C434        C  0.56345151  0.80982881  0.35397613    -0.07300
C435        C  0.55069995  0.82034113  0.39522157     0.13600
C436        C  0.57511310  0.82080205  0.43051162    -0.20800
C437        C  0.61231428  0.81088075  0.42576012    -0.07300
C438        C  0.62542340  0.80404588  0.38265554     0.13600
C439        C  0.66544622  0.79904083  0.37167010    -0.24100
H440        H  0.60993668  0.79580192  0.31543990     0.14900
H441        H  0.56434755  0.82930367  0.46145281     0.14900
C442        C  0.51105206  0.83014915  0.40217803    -0.24100
H443        H  0.66960000  0.79508036  0.33622223     0.05100
H444        H  0.67718302  0.77479782  0.38709856     0.08300
H445        H  0.68130264  0.82360346  0.38116142     0.08300
H446        H  0.49334098  0.80672638  0.39262020     0.08300
H447        H  0.50371737  0.85398755  0.38219512     0.08300
H448        H  0.50533749  0.83725821  0.43665318     0.05100
C449        C  0.37308915  0.75923783  0.38804910    -0.20700
C450        C  0.36468628  0.79108039  0.41148796    -0.07300
C451        C  0.37769768  0.82480672  0.39637770     0.13600
C452        C  0.40065223  0.82563087  0.35980132    -0.20800
C453        C  0.41195034  0.79338195  0.33838609    -0.07300
C454        C  0.39658207  0.75974515  0.35195400     0.13600
C455        C  0.40540848  0.72386162  0.32988024    -0.24100
H456        H  0.36342417  0.73339353  0.40014761     0.14900
H457        H  0.41154769  0.85155297  0.34958666     0.14900
C458        C  0.36878376  0.85984632  0.42015525    -0.24100
H459        H  0.38907109  0.70112801  0.34318666     0.05100
H460        H  0.39911552  0.72538259  0.29464857     0.08300
H461        H  0.43464907  0.71695462  0.33492395     0.08300
H462        H  0.37909481  0.85888253  0.45408931     0.08300
H463        H  0.33877672  0.86393865  0.42045035     0.08300
H464        H  0.38136806  0.88376544  0.40442290     0.05100
C465        C  0.42277986  0.78808541  0.06986281    -0.20700
C466        C  0.38435116  0.78441672  0.07365406    -0.07300
C467        C  0.36963147  0.78264953  0.11663832     0.13600
C468        C  0.39299630  0.78496484  0.15275869    -0.20800
C469        C  0.43056137  0.78888074  0.14802861    -0.07300
C470        C  0.44581789  0.79035898  0.10638019     0.13600
C471        C  0.48654637  0.79463888  0.10054900    -0.24100
H472        H  0.43573713  0.78998719  0.03882146     0.14900
H473        H  0.38167076  0.78393384  0.18522069     0.14900
C474        C  0.32964786  0.77855015  0.12727745    -0.24100
H475        H  0.49427335  0.79532717  0.06576019     0.05100
H476        H  0.50101343  0.77141982  0.11560096     0.08300
H477        H  0.49591766  0.82044189  0.11631740     0.08300
H478        H  0.32570581  0.75373072  0.14688739     0.08300
H479        H  0.31167652  0.77582168  0.09893461     0.08300
H480        H  0.32038575  0.80260747  0.14657377     0.05100
C481        C  0.29054176  0.68590663  0.99665788    -0.20700
C482        C  0.28042070  0.72068067  0.49556354    -0.07300
C483        C  0.24298853  0.72942511  0.50162713     0.13600
C484        C  0.21711838  0.70147831  0.50463835    -0.20800
C485        C  0.22700731  0.66645477  0.00068600    -0.07300
C486        C  0.26469866  0.65773909  0.00010245     0.15600
C487        C  0.27883733  0.61938511  0.00423357    -0.24100
H488        H  0.31941341  0.67912496  0.99727859     0.14900
H489        H  0.18851044  0.70851723  0.50833837     0.14900
C490        C  0.22971992  0.76783629  0.50738651    -0.24100
H491        H  0.29667580  0.61769183  0.03341842     0.05100
H492        H  0.29077594  0.61025672  0.46507107     0.08300
H493        H  0.25685215  0.59891704  0.00743231     0.08300
H494        H  0.19982777  0.76925759  0.51355286     0.08300
H495        H  0.23772849  0.78454785  0.01905553     0.08300
H496        H  0.23490936  0.78344677  0.47762831     0.05100
C497        C  0.11975702  0.57257747  0.10239969    -0.20700
C498        C  0.15295561  0.58880927  0.09083662    -0.07300
C499        C  0.18381018  0.58416673  0.11779460     0.13600
C500        C  0.18169506  0.56043355  0.15314003    -0.20800
C501        C  0.14937088  0.54111828  0.16231379    -0.07300
C502        C  0.11736154  0.54898991  0.13776986     0.13600
C503        C  0.08088893  0.53153443  0.14674575    -0.24100
H504        H  0.09606701  0.57646714  0.08164279     0.14900
H505        H  0.20605637  0.55564291  0.17242010     0.14900
C506        C  0.21959758  0.60229602  0.10765875    -0.24100
H507        H  0.05920362  0.54117857  0.12429127     0.05100
H508        H  0.07210903  0.53852972  0.18029259     0.08300
H509        H  0.08284363  0.50153778  0.14249248     0.08300
H510        H  0.21595674  0.63231507  0.10749751     0.08300
H511        H  0.22925687  0.59278298  0.07540803     0.08300
H512        H  0.24107509  0.59581137  0.13196890     0.05100
C513        C  0.13715862  0.53595046  0.42570339    -0.20700
C514        C  0.15076802  0.57190815  0.42301318    -0.07300
C515        C  0.16031454  0.58494217  0.38106380     0.13600
C516        C  0.16054465  0.56069633  0.34551511    -0.20800
C517        C  0.14899194  0.52471099  0.34949304    -0.07300
C518        C  0.13624624  0.51231347  0.38957805     0.13600
C519        C  0.12274210  0.47374797  0.39461680    -0.24100
H520        H  0.12647732  0.52572895  0.45560869     0.14900
H521        H  0.16919961  0.57019449  0.31401954     0.14900
C522        C  0.17029477  0.62395874  0.37132960    -0.24100
H523        H  0.11476505  0.46811045  0.42858806     0.05100
H524        H  0.14462640  0.45419659  0.38526379     0.08300
H525        H  0.09840286  0.46900373  0.37359208     0.08300
H526        H  0.19892022  0.62508299  0.35955475     0.08300
H527        H  0.16769736  0.64317679  0.39902332     0.08300
H528        H  0.15189979  0.63419678  0.34543021     0.05100
C529        C  0.26369587  0.85577943  0.95947194    -0.20700
C530        C  0.27766416  0.84242865  0.50814140    -0.07300
C531        C  0.25811585  0.85327724  0.54615911     0.13600
C532        C  0.22637573  0.87452243  0.54211319    -0.20800
C533        C  0.21152834  0.88651844  0.99342806    -0.07300
C534        C  0.23157750  0.87679935  0.95556867     0.13600
C535        C  0.21967360  0.88817664  0.91087576    -0.24100
H536        H  0.27867150  0.84819421  0.93049078     0.14900
H537        H  0.21163291  0.88236265  0.57121202     0.14900
C538        C  0.26859196  0.84173498  0.59135153    -0.24100
H539        H  0.23849800  0.87779639  0.88534250     0.05100
H540        H  0.21939109  0.91836736  0.90902772     0.08300
H541        H  0.19419279  0.87699250  0.41120271     0.08300
H542        H  0.26525116  0.80910658  0.08086930     0.08300
H543        H  0.24725810  0.84904258  0.61550768     0.08300
H544        H  0.29379905  0.85592933  0.60227772     0.05100
C545        C  0.22801448  0.03613700  0.04110913    -0.20700
C546        C  0.21367564  0.02986227  0.50455919    -0.07300
C547        C  0.22961159  0.04471377  0.46696034     0.13600
C548        C  0.26212340  0.06465046  0.47096681    -0.20800
C549        C  0.27873488  0.06819351  0.00819582    -0.07300
C550        C  0.26128332  0.05503236  0.04559050     0.13600
C551        C  0.27747888  0.05873900  0.09047795    -0.24100
H552        H  0.21521116  0.02598381  0.07017255     0.14900
H553        H  0.27348899  0.07663826  0.44209410     0.14900
C554        C  0.21271276  0.04045133  0.42235030    -0.24100
H555        H  0.27991311  0.03137167  0.10507595     0.05100
H556        H  0.26206269  0.07585633  0.61514475     0.08300
H557        H  0.30516977  0.07072381  0.09059471     0.08300
H558        H  0.18430450  0.05116250  0.42261651     0.08300
H559        H  0.21343911  0.00672768  0.90903893     0.08300
H560        H  0.22808621  0.05570901  0.39750022     0.05100
C561        C  0.95741409  0.20715150  0.48455755    -0.20700
C562        C  0.94037078  0.17472114  0.49674670    -0.07300
C563        C  0.90243368  0.17578220  0.01743972     0.13600
C564        C  0.88336073  0.20895535  0.01789293    -0.20800
C565        C  0.89896956  0.24096009  0.00147051    -0.07300
C566        C  0.93888711  0.24059508  0.48673091     0.13600
C567        C  0.96073199  0.27458945  0.47828492    -0.24100
H568        H  0.98588625  0.20656348  0.47477641     0.14900
H569        H  0.85536928  0.20919119  0.02908612     0.14900
C570        C  0.88387574  0.14177771  0.03295883    -0.24100
H571        H  0.98567592  0.27478980  0.49904858     0.05100
H572        H  0.94250378  0.29940816  0.98593551     0.08300
H573        H  0.96913072  0.27496897  0.44372562     0.08300
H574        H  0.89936615  0.13036270  0.06068545     0.08300
H575        H  0.88460103  0.12128050  0.49833959     0.08300
H576        H  0.85547465  0.14732382  0.04389297     0.05100
C577        C  0.07843685  0.19078532  0.96072566    -0.20700
C578        C  0.08133158  0.16692492  0.99592734    -0.07300
C579        C  0.10531778  0.17875920  0.53172930     0.13600
C580        C  0.12571602  0.21105288  0.52947508    -0.20800
C581        C  0.12559163  0.23247391  0.49208431    -0.07300
C582        C  0.09949301  0.22271309  0.95877226     0.13600
C583        C  0.09330449  0.24872505  0.92215785    -0.24100
H584        H  0.05844906  0.18522030  0.93534522     0.14900
H585        H  0.14181783  0.21991016  0.55736558     0.14900
C586        C  0.10725984  0.15707302  0.57283198    -0.24100
H587        H  0.07167356  0.23882872  0.89941580     0.05100
H588        H  0.12998206  0.24592495  0.39987382     0.08300
H589        H  0.08456712  0.27556183  0.93555790     0.08300
H590        H  0.11567063  0.12863215  0.56510611     0.08300
H591        H  0.08817488  0.14858684  0.08715928     0.08300
H592        H  0.12750005  0.16869605  0.59625534     0.05100
C593        C  0.78624669  0.86977166  0.47155309    -0.20700
C594        C  0.79079679  0.89619729  0.50458133    -0.07300
C595        C  0.76156710  0.90090720  0.03625776     0.13600
C596        C  0.73032383  0.87861946  0.03514428    -0.20800
C597        C  0.72683357  0.85000059  0.00490617    -0.07300
C598        C  0.75558433  0.84672168  0.47018386     0.13600
C599        C  0.75383865  0.81824275  0.43443509    -0.24100
H600        H  0.80693267  0.86687283  0.44664625     0.14900
H601        H  0.70798026  0.88426798  0.05709393     0.14900
C602        C  0.76275247  0.93258942  0.06805338    -0.24100
H603        H  0.77846099  0.80058436  0.43611516     0.05100
H604        H  0.75315611  0.83172803  0.40244678     0.08300
H605        H  0.72985833  0.79480644  0.94538845     0.08300
H606        H  0.76827585  0.95549809  0.55865928     0.08300
H607        H  0.78559961  0.92902231  0.09145431     0.08300
H608        H  0.73711515  0.93484559  0.08710075     0.05100
C609        C  0.76645576  0.03621910  0.97060725    -0.20700
C610        C  0.79288117  0.03945112  0.00390974    -0.07300
C611        C  0.78920599  0.06834666  0.53778487     0.13600
C612        C  0.75759986  0.09018623  0.53794922    -0.20800
C613        C  0.73187949  0.08863619  0.50387693    -0.07300
C614        C  0.73442235  0.05734068  0.97083980     0.13600
C615        C  0.70653928  0.05046447  0.93542946    -0.24100
H616        H  0.77010390  0.01605060  0.94489587     0.14900
H617        H  0.75259631  0.10837605  0.56535204     0.14900
C618        C  0.81529171  0.07153367  0.57574552    -0.24100
H619        H  0.69793354  0.02145529  0.93575009     0.05100
H620        H  0.71887200  0.05632736  0.90343945     0.08300
H621        H  0.68720481  0.07717060  0.43420612     0.08300
H622        H  0.84258587  0.07707800  0.05921068     0.08300
H623        H  0.81560773  0.04578289  0.59410148     0.08300
H624        H  0.80718084  0.09366133  0.59876179     0.05100
C625        C  0.90627750  0.69509377  0.46739002    -0.20700
C626        C  0.87797343  0.69407929  0.49771826    -0.07300
C627        C  0.87434589  0.72108735  0.03078196     0.13600
C628        C  0.89785173  0.75115455  0.02791558    -0.20800
C629        C  0.92101254  0.75547899  0.99222651    -0.07300
C630        C  0.93004783  0.72510012  0.46556048     0.13600
C631        C  0.96189285  0.72338833  0.43466068    -0.24100
H632        H  0.91038121  0.67188153  0.44580984     0.14900
H633        H  0.89819043  0.77144851  0.05386741     0.14900
C634        C  0.84864679  0.71917549  0.06879329    -0.24100
H635        H  0.96305400  0.69687293  0.41681461     0.05100
H636        H  0.97317358  0.73249510  0.92874801     0.08300
H637        H  0.95935127  0.74512500  0.41020601     0.08300
H638        H  0.85489692  0.69529180  0.08903193     0.08300
H639        H  0.81514853  0.72270393  0.54008665     0.08300
H640        H  0.85074562  0.74377423  0.09014957     0.05100
C641        C  0.07004609  0.73002053  0.03436558    -0.20700
C642        C  0.07072528  0.75235439  0.49788695    -0.07300
C643        C  0.09135504  0.74051125  0.46143680     0.13600
C644        C  0.11159644  0.70802242  0.46374053    -0.20800
C645        C  0.11112455  0.68568992  0.00131656    -0.07300
C646        C  0.09078527  0.69787699  0.03748155     0.13600
C647        C  0.08907903  0.67616097  0.07853644    -0.24100
H648        H  0.05415020  0.73889732  0.06216452     0.14900
H649        H  0.12743352  0.69911740  0.43587594     0.14900
C650        C  0.09256382  0.76170707  0.41995345    -0.24100
H651        H  0.06957524  0.68825510  0.10222177     0.05100
H652        H  0.10043768  0.69171515  0.60603183     0.08300
H653        H  0.07989889  0.64792810  0.07086485     0.08300
H654        H  0.06510346  0.76199526  0.40444347     0.08300
H655        H  0.10752180  0.74447642  0.89300767     0.08300
H656        H  0.10186786  0.79001832  0.42695543     0.05100
O657        O  0.96069552  0.80054381  0.53106739    -0.72200
O658        O  0.03671577  0.87146204  0.53369268    -0.72400
O659        O  0.96297142  0.87419929  0.53286351    -0.72300
O660        O  0.03365787  0.79810081  0.53245038    -0.72300
O661        O  0.03252631  0.79629525  0.95947726    -0.72200
O662        O  0.96172931  0.87295008  0.96080607    -0.72300
O663        O  0.03536097  0.86986257  0.96002267    -0.72200
O664        O  0.95961612  0.79941633  0.95868732    -0.72400
V665        V  0.99848894  0.83622785  0.53115140     1.35200
V666        V  0.99730893  0.83475286  0.96110816     1.35200
C667        C  0.94991806  0.78679385  0.49529165     0.77000
C668        C  0.04856674  0.88191666  0.99534170     0.77100
C669        C  0.95053356  0.88679980  0.49778688     0.77000
C670        C  0.04380472  0.78264096  0.99464054     0.76900
O671        O  0.83532428  0.92833169  0.96791695    -0.72200
O672        O  0.90979786  0.00125021  0.96439230    -0.72400
O673        O  0.90916448  0.92773143  0.96364459    -0.72300
O674        O  0.83589807  0.00101673  0.96747823    -0.72300
O675        O  0.84093748  0.00611652  0.53606740    -0.72200
O676        O  0.91134537  0.92942110  0.53411587    -0.72300
O677        O  0.91451812  0.00271798  0.53366437    -0.72200
O678        O  0.83759952  0.93344649  0.53721402    -0.72400
V679        V  0.87273867  0.96461784  0.96719555     1.35200
V680        V  0.87615871  0.96786749  0.53385143     1.35200
C681        C  0.82262680  0.91835482  0.00402729     0.77000
C682        C  0.92605102  0.01457964  0.49800747     0.77100
C683        C  0.92238432  0.91496025  0.99815542     0.77000
C684        C  0.82652093  0.01746874  0.50136743     0.76900
O685        O  0.04505778  0.12496332  0.53202547    -0.72200
O686        O  0.96927678  0.05391426  0.53270873    -0.72400
O687        O  0.04271988  0.05158961  0.53365078    -0.72300
O688        O  0.97217323  0.12725068  0.53192832    -0.72300
O689        O  0.97051175  0.12716354  0.96406390    -0.72200
O690        O  0.03848870  0.04873830  0.96287441    -0.72300
O691        O  0.96506143  0.05346403  0.96355295    -0.72200
O692        O  0.04283242  0.12202673  0.96261292    -0.72400
V693        V  0.00729329  0.08927371  0.53119871     1.35200
V694        V  0.00418225  0.08769597  0.96465680     1.35200
C695        C  0.05795512  0.13625462  0.49666651     0.77000
C696        C  0.95313338  0.04127651  0.99888725     0.77100
C697        C  0.05408956  0.03717454  0.49878441     0.77000
C698        C  0.95989818  0.14094353  0.99969908     0.76900
O699        O  0.16641595  0.92198090  0.53625753    -0.72200
O700        O  0.09314217  0.99566346  0.53530058    -0.72400
O701        O  0.09226443  0.92247577  0.53503106    -0.72300
O702        O  0.16681166  0.99439515  0.53745025    -0.72300
O703        O  0.16472253  0.99441185  0.96247555    -0.72200
O704        O  0.09020888  0.92175802  0.96020686    -0.72300
O705        O  0.09089231  0.99502221  0.96205175    -0.72200
O706        O  0.16433594  0.92207252  0.95914237    -0.72400
V707        V  0.12951989  0.95854312  0.53466354     1.35200
V708        V  0.12735547  0.95828748  0.96230664     1.35200
C709        C  0.18045314  0.91031435  0.50115482     0.77000
C710        C  0.07888445  0.00753504  0.99761163     0.77100
C711        C  0.07946920  0.91041960  0.49944351     0.77000
C712        C  0.17875457  0.00518444  0.99810218     0.76900
C713        C  0.15587370  0.59527043  0.96661259     0.86100
C714        C  0.12739282  0.62598361  0.96771434    -0.54200
C715        C  0.13174923  0.65111741  0.49917323     0.09000
C716        C  0.16282923  0.64042118  0.53065783     0.20000
C717        C  0.19332435  0.61416046  0.96831668    -0.54900
C718        C  0.19706770  0.63752545  0.50157548     0.09100
C719        C  0.15232559  0.57804649  0.01170596    -0.54400
C720        C  0.15429016  0.60075358  0.54332730     0.09700
H721        H  0.10643314  0.62892728  0.94286307     0.14200
H722        H  0.16616793  0.65958983  0.55864806    -0.00100
H723        H  0.21373092  0.61063532  0.94307032     0.14500
H724        H  0.14597262  0.54885781  0.51352645     0.14300
C725        C  0.36081444  0.78039711  0.53501355     0.86100
C726        C  0.33463826  0.81300448  0.53943927    -0.54200
C727        C  0.30809433  0.81759028  0.00079477     0.09000
C728        C  0.31261336  0.78527271  0.96815880     0.20000
C729        C  0.33658686  0.74639132  0.52977031    -0.54900
C730        C  0.30916848  0.75125793  0.99683316     0.09100
C731        C  0.37725251  0.78478877  0.48950109    -0.54400
C732        C  0.35330374  0.78628651  0.95410777     0.09700
H733        H  0.33799100  0.83311710  0.56512143     0.14200
H734        H  0.29350611  0.78532520  0.94016180    -0.00100
H735        H  0.33883129  0.72312224  0.55100224     0.14500
H736        H  0.40641609  0.78553277  0.98156725     0.14300
O737        O  0.54305147  0.76269401  0.71328654    -0.72200
O738        O  0.46296971  0.75913010  0.79173252    -0.72400
O739        O  0.47064302  0.75458361  0.70468044    -0.72300
O740        O  0.53554711  0.76738269  0.80030072    -0.72300
O741        O  0.52783026  0.82606872  0.79746226    -0.72200
O742        O  0.46599478  0.81346276  0.69971052    -0.72300
O743        O  0.45572483  0.81743703  0.78654606    -0.72200
O744        O  0.53804402  0.82140730  0.71058447    -0.72400
V745        V  0.50295157  0.76207832  0.75247433     1.35200
V746        V  0.49701976  0.81845950  0.74866614     1.35200
C747        C  0.55376187  0.79244844  0.69753348     0.77000
C748        C  0.44572356  0.78760034  0.80304794     0.77100
C749        C  0.45817535  0.78204190  0.68535385     0.77000
C750        C  0.54192479  0.79889465  0.81561870     0.76900
C751        C  0.63539917  0.80767245  0.96891859     0.86100
C752        C  0.66747920  0.83469508  0.96954043    -0.54200
C753        C  0.69327887  0.82987267  0.49984684     0.09000
C754        C  0.68371001  0.79840490  0.53022787     0.20000
C755        C  0.65246953  0.76957163  0.97175047    -0.54900
C756        C  0.68107938  0.76485406  0.49929895     0.09100
C757        C  0.61786197  0.81314981  0.01392177    -0.54400
C758        C  0.64377757  0.80562812  0.54497510     0.09700
H759        H  0.67096823  0.85593277  0.94586080     0.14200
H760        H  0.70381095  0.79571056  0.55708242    -0.00100
H761        H  0.64566841  0.74809032  0.94843568     0.14500
H762        H  0.59097464  0.81262310  0.51765505     0.14300
C763        C  0.82977239  0.60636461  0.53279745     0.86100
C764        C  0.85705322  0.63815463  0.53481716    -0.54200
C765        C  0.85233011  0.66035490  0.00015024     0.09000
C766        C  0.82196538  0.64978939  0.96755554     0.20000
C767        C  0.79211684  0.62441525  0.52547854    -0.54900
C768        C  0.78723372  0.64913977  0.99602249     0.09100
C769        C  0.83633720  0.58694652  0.48921093    -0.54400
C770        C  0.82951118  0.60928531  0.95496408     0.09700
H771        H  0.87584224  0.64272459  0.56181700     0.14200
H772        H  0.82083508  0.66853840  0.93984009    -0.00100
H773        H  0.76798411  0.61936095  0.54455095     0.14500
H774        H  0.83540747  0.55758080  0.98607174     0.14300
C775        C  0.36482747  0.12053222  0.97486656     0.86100
C776        C  0.33795269  0.08826276  0.97757649    -0.54200
C777        C  0.31292282  0.09434488  0.51197597     0.09000
C778        C  0.31764074  0.12958869  0.53979180     0.20000
C779        C  0.33939066  0.15369884  0.97114868    -0.54900
C780        C  0.31432490  0.16033857  0.50640364     0.09100
C781        C  0.38185863  0.12300615  0.02008829    -0.54400
C782        C  0.35835337  0.12978833  0.55386680     0.09700
H783        H  0.33638786  0.06598520  0.95429549     0.14200
H784        H  0.29842089  0.13256133  0.56732417    -0.00100
H785        H  0.34052653  0.17250865  0.94430682     0.14500
H786        H  0.41173686  0.12629503  0.52507849     0.14300
C787        C  0.16949567  0.32278776  0.52928881     0.86100
C788        C  0.14120365  0.29186803  0.52716008    -0.54200
C789        C  0.14580277  0.26520634  0.99411807     0.09000
C790        C  0.17643496  0.27507255  0.96220222     0.20000
C791        C  0.20711911  0.30407088  0.52834187    -0.54900
C792        C  0.21124924  0.27686829  0.99094665     0.09100
C793        C  0.16664419  0.34042145  0.48429565    -0.54400
C794        C  0.16864352  0.31492247  0.94980276     0.09700
H795        H  0.12020507  0.28842517  0.55159858     0.14200
H796        H  0.17888537  0.25598120  0.93404969    -0.00100
H797        H  0.22718404  0.30720948  0.55427929     0.14500
H798        H  0.16264620  0.36703570  0.97955900     0.14300
O799        O  0.18238351  0.42116956  0.78772439    -0.72200
O800        O  0.17780297  0.49974831  0.70824853    -0.72400
O801        O  0.17824937  0.49390913  0.79515327    -0.72300
O802        O  0.18241457  0.42700847  0.70086374    -0.72300
O803        O  0.12294409  0.42572458  0.69788107    -0.72200
O804        O  0.11903739  0.48814551  0.79696894    -0.72300
O805        O  0.11861532  0.49789977  0.71030691    -0.72200
O806        O  0.12341985  0.41600154  0.78445157    -0.72400
V807        V  0.17907955  0.46040311  0.74798681     1.35200
V808        V  0.12212297  0.45701840  0.74741668     1.35200
C809        C  0.15356576  0.40519569  0.79998353     0.77000
C810        C  0.14732989  0.51211225  0.69527565     0.77100
C811        C  0.14809787  0.50154354  0.81274957     0.77000
C812        C  0.15343975  0.41578906  0.68274730     0.76900
O813        O  0.54144999  0.15758282  0.80298457    -0.72200
O814        O  0.46188240  0.15797171  0.72225450    -0.72400
O815        O  0.46890434  0.15353114  0.80923889    -0.72300
O816        O  0.53518641  0.16203798  0.71588120    -0.72300
O817        O  0.53808898  0.10321692  0.71020180    -0.72200
O818        O  0.47190806  0.09469414  0.80357901    -0.72300
O819        O  0.46500061  0.09919918  0.71686465    -0.72200
O820        O  0.54422656  0.09871143  0.79706467    -0.72400
V821        V  0.50189934  0.15668856  0.76233519     1.35200
V822        V  0.50473879  0.10012462  0.75687529     1.35200
C823        C  0.55531544  0.12782189  0.81524192     0.77000
C824        C  0.44976188  0.12851663  0.70562574     0.77100
C825        C  0.45998614  0.12261663  0.82329791     0.77000
C826        C  0.54821619  0.13409171  0.69714382     0.76900
C827        C  0.64860336  0.14062252  0.54897250     0.86100
C828        C  0.67757037  0.11040566  0.54556159    -0.54200
C829        C  0.69528777  0.10523286  0.00865923     0.09000
C830        C  0.68625247  0.13716607  0.97855811     0.20000
C831        C  0.67198344  0.17535620  0.54388509    -0.54900
C832        C  0.69156070  0.17119693  0.00795506     0.09100
C833        C  0.62596065  0.13801244  0.50709246    -0.54400
C834        C  0.64476573  0.13511190  0.97037533     0.09700
H835        H  0.68391433  0.09232613  0.57209899     0.14200
H836        H  0.70256319  0.13697990  0.94828966    -0.00100
H837        H  0.67701758  0.19503808  0.56968123     0.14500
H838        H  0.59488076  0.13491403  0.00671522     0.14300
C839        C  0.84413179  0.32031718  0.95161422     0.86100
C840        C  0.87537057  0.29256501  0.95640781    -0.54200
C841        C  0.87758352  0.27369546  0.49235365     0.09000
C842        C  0.84449127  0.28291467  0.52139680     0.20000
C843        C  0.80919718  0.29699959  0.95596846    -0.54900
C844        C  0.81125348  0.27869691  0.49080180     0.09100
C845        C  0.84465374  0.34332757  0.99378150    -0.54400
C846        C  0.84757770  0.32418887  0.53059048     0.09700
H847        H  0.89518091  0.28764381  0.93086104     0.14200
H848        H  0.84259404  0.26649673  0.55124964    -0.00100
H849        H  0.78662740  0.29549423  0.93322377     0.14500
H850        H  0.84967961  0.37423408  0.49549152     0.14300
O851        O  0.80956675  0.50215939  0.78591281    -0.72200
O852        O  0.81362221  0.42552211  0.70223243    -0.72400
O853        O  0.81386365  0.42942371  0.78910166    -0.72300
O854        O  0.80975292  0.49788778  0.69890105    -0.72300
O855        O  0.86896640  0.50167235  0.69917828    -0.72200
O856        O  0.87313888  0.43231212  0.78917853    -0.72300
O857        O  0.87268610  0.42874388  0.70128598    -0.72200
O858        O  0.86863021  0.50561211  0.78713981    -0.72400
V859        V  0.81293507  0.46383700  0.74411037     1.35200
V860        V  0.86981529  0.46703586  0.74427441     1.35200
C861        C  0.83805866  0.51697959  0.80139658     0.77000
C862        C  0.84345323  0.41446268  0.68637745     0.77100
C863        C  0.84412869  0.41883954  0.80426058     0.77000
C864        C  0.83856281  0.51123697  0.68330820     0.76900
C865        C  0.81371296  0.35010041  0.59302541    -0.20700
C866        C  0.84740210  0.34152795  0.57436475    -0.07300
C867        C  0.87988598  0.35385043  0.59464202     0.13600
C868        C  0.87783484  0.37609682  0.63224149    -0.20800
C869        C  0.84391753  0.38679642  0.64992078    -0.07300
C870        C  0.81132292  0.37256828  0.63031400     0.13600
C871        C  0.77360246  0.38146405  0.64706524    -0.24100
H872        H  0.78896214  0.34046692  0.57701251     0.14900
H873        H  0.90293931  0.38617466  0.64693212     0.14900
C874        C  0.91666181  0.34408377  0.57595402    -0.24100
H875        H  0.75185105  0.36713966  0.62810807     0.05100
H876        H  0.76827044  0.41112081  0.64449803     0.08300
H877        H  0.77113817  0.37281242  0.68130170     0.08300
H878        H  0.91907863  0.35507257  0.54275652     0.08300
H879        H  0.91968333  0.31398306  0.57437804     0.08300
H880        H  0.93944124  0.35542606  0.59598690     0.05100
C881        C  0.82173583  0.33894904  0.87607869    -0.20700
C882        C  0.84728775  0.34336386  0.91037329    -0.07300
C883        C  0.87513446  0.37021447  0.90536644     0.13600
C884        C  0.87335290  0.39420136  0.87038437    -0.20800
C885        C  0.84549742  0.39168138  0.83911168    -0.07300
C886        C  0.82004251  0.36290859  0.84123993     0.13600
C887        C  0.79146764  0.35649571  0.80631615    -0.24100
H888        H  0.80289680  0.31649133  0.87515253     0.14900
H889        H  0.89384425  0.41543273  0.86782678     0.14900
C890        C  0.90748627  0.37488242  0.93554322    -0.24100
H891        H  0.77567278  0.33110036  0.81155393     0.05100
H892        H  0.80482567  0.35401097  0.77410168     0.08300
H893        H  0.77155277  0.37928418  0.80617938     0.08300
H894        H  0.93315793  0.37340754  0.91647364     0.08300
H895        H  0.90956194  0.35372026  0.96029398     0.08300
H896        H  0.90604144  0.40192304  0.95213666     0.05100
C897        C  0.75331749  0.18882762  0.98257615    -0.20700
C898        C  0.71989267  0.19962850  0.00080138    -0.07300
C899        C  0.71759474  0.24131847  0.51425034     0.13600
C900        C  0.74866269  0.26382499  0.51434055    -0.20800
C901        C  0.78145892  0.25200388  0.49561768    -0.07300
C902        C  0.78221703  0.21345866  0.97819647     0.13600
C903        C  0.81419707  0.20114453  0.95103002    -0.24100
H904        H  0.75709849  0.16103650  0.97112824     0.14900
H905        H  0.74662992  0.29160970  0.52663818     0.14900
C906        C  0.68182985  0.25864608  0.52737345    -0.24100
H907        H  0.80431355  0.19351435  0.91796998     0.05100
H908        H  0.82641010  0.17938387  0.46070396     0.08300
H909        H  0.83518117  0.22247340  0.94719380     0.08300
H910        H  0.68241208  0.26556475  0.56258240     0.08300
H911        H  0.65558969  0.23463850  0.01814602     0.08300
H912        H  0.67773031  0.28408381  0.50891851     0.05100
C913        C  0.60529907  0.10085606  0.91877090    -0.20700
C914        C  0.62690808  0.13173245  0.92709607    -0.07300
C915        C  0.62722032  0.16017300  0.89681863     0.13600
C916        C  0.60479945  0.15752363  0.85954569    -0.20800
C917        C  0.58213823  0.12705471  0.85178987    -0.07300
C918        C  0.58287904  0.09806647  0.88176110     0.13600
C919        C  0.55856793  0.06500635  0.87674900    -0.24100
H920        H  0.60502907  0.07927204  0.94240172     0.14900
H921        H  0.60423551  0.17982205  0.83690952     0.14900
C922        C  0.64961640  0.19409138  0.90487565    -0.24100
H923        H  0.56164434  0.04616461  0.90439025     0.05100
H924        H  0.56583002  0.04952922  0.84677481     0.08300
H925        H  0.52943711  0.07352726  0.87534357     0.08300
H926        H  0.67910518  0.18705771  0.90621472     0.08300
H927        H  0.64147149  0.20719978  0.93608869     0.08300
H928        H  0.64569590  0.21420980  0.87871389     0.05100
C929        C  0.57940289  0.10607017  0.63367949    -0.20700
C930        C  0.57433180  0.13687511  0.66048563    -0.07300
C931        C  0.59413186  0.16896307  0.65150070     0.13600
C932        C  0.61813348  0.16923780  0.61612303    -0.20800
C933        C  0.62387848  0.13823237  0.58919878    -0.07300
C934        C  0.60338144  0.10613841  0.59825537     0.13600
C935        C  0.60549971  0.07154284  0.57087721    -0.24100
H936        H  0.56398945  0.08154019  0.64018733     0.14900
H937        H  0.63108390  0.19478960  0.60926631     0.14900
C938        C  0.59055071  0.20325454  0.67890765    -0.24100
H939        H  0.63288173  0.05893791  0.57332456     0.05100
H940        H  0.59871261  0.07682069  0.53650734     0.08300
H941        H  0.58577728  0.05063985  0.58187616     0.08300
H942        H  0.59739074  0.19738037  0.71325367     0.08300
H943        H  0.56228725  0.21409114  0.67648828     0.08300
H944        H  0.60933283  0.22509850  0.66818090     0.05100
C945        C  0.12936441  0.34165401  0.89304743    -0.20700
C946        C  0.16407974  0.32916637  0.90524606    -0.07300
C947        C  0.19449180  0.33793927  0.87955647     0.13600
C948        C  0.18984047  0.36102458  0.84386817    -0.20800
C949        C  0.15539242  0.37583287  0.83320806    -0.07300
C950        C  0.12440757  0.36446956  0.85725796     0.13600
C951        C  0.08611670  0.37720594  0.84712751    -0.24100
H952        H  0.10620076  0.33522077  0.91332866     0.14900
H953        H  0.21365074  0.36879135  0.82538086     0.14900
C954        C  0.23217661  0.32475629  0.89142831    -0.24100
H955        H  0.06564490  0.36533791  0.86936032     0.05100
H956        H  0.07844170  0.36865564  0.81356647     0.08300
H957        H  0.08430904  0.40726147  0.85066527     0.08300
H958        H  0.23251550  0.29451240  0.89169595     0.08300
H959        H  0.23985631  0.33547847  0.92410502     0.08300
H960        H  0.25307641  0.33399056  0.86800382     0.05100
C961        C  0.15417378  0.38380629  0.56617030    -0.20700
C962        C  0.16423176  0.34679604  0.56996288    -0.07300
C963        C  0.16853981  0.33257729  0.61271792     0.13600
C964        C  0.16473905  0.35589349  0.64884051    -0.20800
C965        C  0.15547606  0.39241320  0.64407550    -0.07300
C966        C  0.14982233  0.40658258  0.60257338     0.13600
C967        C  0.13949532  0.44597002  0.59668180    -0.24100
H968        H  0.14898525  0.39575892  0.53518860     0.14900
H969        H  0.16879656  0.34536800  0.68123716     0.14900
C970        C  0.17693796  0.29322823  0.62285508    -0.24100
H971        H  0.13662811  0.45302049  0.56190642     0.05100
H972        H  0.16077513  0.46396819  0.61140217     0.08300
H973        H  0.11292372  0.45127000  0.61267549     0.08300
H974        H  0.17875326  0.27470448  0.59445938     0.08300
H975        H  0.15507611  0.28230302  0.64389639     0.08300
H976        H  0.20338649  0.29175031  0.64064280     0.05100
C977        C  0.22616217  0.21141325  0.99185380    -0.20700
C978        C  0.23907848  0.24730839  0.99162642    -0.07300
C979        C  0.27718109  0.25639107  0.49917254     0.13600
C980        C  0.30097193  0.22663834  0.50400416    -0.20800
C981        C  0.28762476  0.19087750  0.50791604    -0.07300
C982        C  0.24968241  0.18181063  0.99764813     0.13600
C983        C  0.23368765  0.14424744  0.99524617    -0.24100
H984        H  0.19723515  0.20631406  0.98782900     0.14900
H985        H  0.33027397  0.23127542  0.50379593     0.14900
C986        C  0.29377111  0.29360550  0.49391989    -0.24100
H987        H  0.20359396  0.14458238  0.98999958     0.05100
H988        H  0.24034745  0.13411034  0.53951277     0.08300
H989        H  0.24599478  0.12963803  0.96728592     0.08300
H990        H  0.31043098  0.30070441  0.52309598     0.08300
H991        H  0.27359122  0.31252888  0.98680276     0.08300
H992        H  0.31172917  0.29343626  0.46497345     0.05100
C993        C  0.38026446  0.09782060  0.61899349    -0.20700
C994        C  0.37246826  0.13092024  0.59902855    -0.07300
C995        C  0.38595471  0.16357075  0.61769995     0.13600
C996        C  0.40931734  0.16213969  0.65410061    -0.20800
C997        C  0.41980755  0.12865188  0.67222185    -0.07300
C998        C  0.40315707  0.09617704  0.65571918     0.13600
C999        C  0.40968145  0.05941826  0.67554918    -0.24100
H1000       H  0.37041159  0.07275193  0.60400293     0.14900
H1001       H  0.42090043  0.18729349  0.66694998     0.14900
C1002       C  0.37694301  0.19975575  0.59786518    -0.24100
H1003       H  0.39219911  0.03796349  0.66027157     0.05100
H1004       H  0.40306466  0.06059288  0.71067228     0.08300
H1005       H  0.43854198  0.05092861  0.67084902     0.08300
H1006       H  0.34681605  0.20361913  0.59727140     0.08300
H1007       H  0.38742037  0.20062760  0.56416030     0.08300
H1008       H  0.38933164  0.22279517  0.61657916     0.05100
C1009       C  0.43579633  0.15034181  0.89075953    -0.20700
C1010       C  0.43752417  0.11977549  0.86297621    -0.07300
C1011       C  0.41930012  0.08750384  0.87492595     0.13600
C1012       C  0.39801686  0.08767293  0.91262184    -0.20800
C1013       C  0.39340679  0.11937215  0.93860206    -0.07300
C1014       C  0.41502077  0.15044448  0.92872877     0.13600
C1015       C  0.41732713  0.18467766  0.95660913    -0.24100
H1016       H  0.45125358  0.17462211  0.88310782     0.14900
H1017       H  0.38555576  0.06231062  0.92138709     0.14900
C1018       C  0.42130153  0.05280027  0.84805025    -0.24100
H1019       H  0.40681994  0.20817494  0.93800261     0.05100
H1020       H  0.44636751  0.18997807  0.96543811     0.08300
H1021       H  0.40207736  0.18355689  0.98728890     0.08300
H1022       H  0.44986363  0.04255842  0.84736087     0.08300
H1023       H  0.41147762  0.05789730  0.81451447     0.08300
H1024       H  0.40403422  0.03083976  0.86151508     0.05100
C1025       C  0.80107703  0.58404774  0.88789200    -0.20700
C1026       C  0.83309547  0.59377208  0.91024974    -0.07300
C1027       C  0.86704497  0.58106776  0.89423942     0.13600
C1028       C  0.86789112  0.55761454  0.85759451    -0.20800
C1029       C  0.83558017  0.54584404  0.83651180    -0.07300
C1030       C  0.80165397  0.56050462  0.85134990     0.13600
C1031       C  0.76550918  0.55099968  0.83015258    -0.24100
H1032       H  0.77510079  0.59291048  0.90093551     0.14900
H1033       H  0.89410102  0.54731529  0.84661242     0.14900
C1034       C  0.90282765  0.59076976  0.91604277    -0.24100
H1035       H  0.74245563  0.56639353  0.84499926     0.05100
H1036       H  0.75951325  0.52160200  0.83405161     0.08300
H1037       H  0.76621978  0.55787735  0.79519342     0.08300
H1038       H  0.91636885  0.56559483  0.92755587     0.08300
H1039       H  0.89944195  0.60958747  0.94422081     0.08300
H1040       H  0.92097604  0.60429219  0.89242450     0.05100
C1041       C  0.86511338  0.53656542  0.61628683    -0.20700
C1042       C  0.83673278  0.53670037  0.64670928    -0.07300
C1043       C  0.80751318  0.56136920  0.64184882     0.13600
C1044       C  0.80671764  0.58404294  0.60583962    -0.20800
C1045       C  0.83343988  0.58215438  0.57288244    -0.07300
C1046       C  0.86442020  0.55934769  0.58009062     0.13600
C1047       C  0.89795120  0.55839173  0.55161816    -0.24100
H1048       H  0.88821518  0.51843071  0.62074543     0.14900
H1049       H  0.78534966  0.60415177  0.60522849     0.14900
C1050       C  0.77755426  0.56510526  0.67523740    -0.24100
H1051       H  0.92262667  0.56379499  0.57191678     0.05100
H1052       H  0.89811745  0.57891842  0.52587133     0.08300
H1053       H  0.90063330  0.53096259  0.53622214     0.08300
H1054       H  0.78970262  0.57072827  0.70779342     0.08300
H1055       H  0.76098469  0.53981018  0.67596656     0.08300
H1056       H  0.75849672  0.58777342  0.66783968     0.05100
C1057       C  0.71321604  0.71727243  0.96324721    -0.20700
C1058       C  0.70757176  0.73366912  0.49849012    -0.07300
C1059       C  0.72069913  0.71662702  0.53629715     0.13600
C1060       C  0.74800865  0.69005022  0.53264156    -0.20800
C1061       C  0.75811760  0.67782638  0.99679065    -0.07300
C1062       C  0.73880410  0.68885858  0.95955001     0.13600
C1063       C  0.74277376  0.66937821  0.91642011    -0.24100
H1064       H  0.70082707  0.72692516  0.93368304     0.14900
H1065       H  0.75903260  0.67914279  0.56245200     0.14900
C1066       C  0.70591907  0.72404636  0.58107324    -0.24100
H1067       H  0.72306392  0.67972802  0.89197525     0.05100
H1068       H  0.77203424  0.65470464  0.40857974     0.08300
H1069       H  0.77042809  0.67313547  0.90292364     0.08300
H1070       H  0.68164706  0.74167822  0.58100284     0.08300
H1071       H  0.73079133  0.74538929  0.10359903     0.08300
H1072       H  0.69732852  0.69799865  0.59578867     0.05100
C1073       C  0.61365864  0.76716438  0.59974535    -0.20700
C1074       C  0.62895208  0.80098931  0.58958884    -0.07300
C1075       C  0.62224955  0.83109387  0.61745018     0.13600
C1076       C  0.59912400  0.82710143  0.65354630    -0.20800
C1077       C  0.58251402  0.79350453  0.66295303    -0.07300
C1078       C  0.59129951  0.76270946  0.63633483     0.13600
C1079       C  0.57622181  0.72521486  0.64465756    -0.24100
H1080       H  0.61771545  0.74436269  0.57748039     0.14900
H1081       H  0.59320139  0.85072954  0.67385421     0.14900
C1082       C  0.63870509  0.86770815  0.60838007    -0.24100
H1083       H  0.58590074  0.70481250  0.62029294     0.05100
H1084       H  0.54590647  0.72551928  0.64306916     0.08300
H1085       H  0.58541943  0.71593903  0.67704979     0.08300
H1086       H  0.63032679  0.87689130  0.57562707     0.08300
H1087       H  0.66889101  0.86548597  0.61011697     0.08300
H1088       H  0.62998286  0.88871433  0.63252884     0.05100
C1089       C  0.60271200  0.80087284  0.84958868    -0.20700
C1090       C  0.56499767  0.80388796  0.85415476    -0.07300
C1091       C  0.54981415  0.81151176  0.89506606     0.13600
C1092       C  0.57297869  0.81481777  0.93132825    -0.20800
C1093       C  0.61128932  0.81019749  0.92793416    -0.07300
C1094       C  0.62627579  0.80432094  0.88545880     0.13600
C1095       C  0.66686411  0.80121928  0.87642115    -0.24100
H1096       H  0.61375550  0.79569103  0.81746041     0.14900
H1097       H  0.56014443  0.82000791  0.96208250     0.14900
C1098       C  0.50894491  0.81492033  0.90061720    -0.24100
H1099       H  0.67231274  0.79503410  0.84163786     0.05100
H1100       H  0.67952443  0.77893726  0.89485975     0.08300
H1101       H  0.68098832  0.82723938  0.88375180     0.08300
H1102       H  0.49538003  0.78920626  0.88991384     0.08300
H1103       H  0.49841482  0.83768179  0.88079245     0.08300
H1104       H  0.50134252  0.82041285  0.93495706     0.05100
C1105       C  0.37616211  0.75490995  0.88754059    -0.20700
C1106       C  0.36766235  0.78776415  0.90898077    -0.07300
C1107       C  0.38161073  0.82061222  0.89252670     0.13600
C1108       C  0.40500374  0.81974085  0.85634989    -0.20800
C1109       C  0.41600359  0.78663607  0.83662285    -0.07300
C1110       C  0.40018564  0.75375820  0.85181954     0.13600
C1111       C  0.40896393  0.71709916  0.83170343    -0.24100
H1112       H  0.36592393  0.72969930  0.90077118     0.14900
H1113       H  0.41640178  0.84512126  0.84507114     0.14900
C1114       C  0.37315945  0.85656754  0.91453922    -0.24100
H1115       H  0.39249522  0.69497231  0.84614002     0.05100
H1116       H  0.40283752  0.71734905  0.79636266     0.08300
H1117       H  0.43818506  0.71034681  0.83721739     0.08300
H1118       H  0.38352250  0.85667455  0.94847352     0.08300
H1119       H  0.34314180  0.86099403  0.91476068     0.08300
H1120       H  0.38602505  0.87973158  0.89759537     0.05100
C1121       C  0.42486719  0.78408354  0.56946705    -0.20700
C1122       C  0.38684700  0.77820657  0.57431471    -0.07300
C1123       C  0.37348248  0.77191906  0.61720434     0.13600
C1124       C  0.39796716  0.77130398  0.65228670    -0.20800
C1125       C  0.43506781  0.77801512  0.64672059    -0.07300
C1126       C  0.44887476  0.78437211  0.60508510     0.13600
C1127       C  0.48902165  0.79184558  0.59832520    -0.24100
H1128       H  0.43657547  0.78987054  0.53845071     0.14900
H1129       H  0.38770724  0.76699699  0.68480546     0.14900
C1130       C  0.33376161  0.76658862  0.62887122    -0.24100
H1131       H  0.49553647  0.79608983  0.56360529     0.05100
H1132       H  0.50535176  0.76839130  0.60972858     0.08300
H1133       H  0.49732805  0.81671909  0.61686551     0.08300
H1134       H  0.33024026  0.73944274  0.64369883     0.08300
H1135       H  0.31446055  0.76821314  0.60155856     0.08300
H1136       H  0.32550316  0.78788736  0.65290364     0.05100
C1137       C  0.29051856  0.68371439  0.49321106    -0.20700
C1138       C  0.27994991  0.72264377  0.99340666    -0.07300
C1139       C  0.24197502  0.73090588  0.99278045     0.13600
C1140       C  0.21632868  0.70278560  0.99664316    -0.20800
C1141       C  0.22716496  0.66475532  0.50246586    -0.07300
C1142       C  0.26455253  0.65566443  0.49704964     0.15600
C1143       C  0.27837523  0.61697553  0.49701936    -0.24100
H1144       H  0.31916458  0.67664439  0.48970705     0.14900
H1145       H  0.18742501  0.70925769  0.99621662     0.14900
C1146       C  0.22748426  0.76907048  0.99062341    -0.24100
H1147       H  0.29955899  0.61411533  0.52272077     0.05100
H1148       H  0.29513111  0.61200504  0.97507684     0.08300
H1149       H  0.25671661  0.59677614  0.50370073     0.08300
H1150       H  0.19712826  0.77003520  0.99195388     0.08300
H1151       H  0.24359501  0.78015135  0.53590653     0.08300
H1152       H  0.23546348  0.78187688  0.95986737     0.05100
C1153       C  0.11744602  0.56940501  0.59864854    -0.20700
C1154       C  0.15038414  0.58667781  0.58814402    -0.07300
C1155       C  0.18042122  0.58394200  0.61681271     0.13600
C1156       C  0.17789093  0.56105093  0.65296129    -0.20800
C1157       C  0.14582639  0.54112974  0.66163226    -0.07300
C1158       C  0.11447078  0.54715512  0.63518292     0.13600
C1159       C  0.07798964  0.52956351  0.64383981    -0.24100
H1160       H  0.09429133  0.57205328  0.57677391     0.14900
H1161       H  0.20170489  0.55761186  0.67360683     0.14900
C1162       C  0.21580954  0.60339494  0.60802551    -0.24100
H1163       H  0.05688643  0.53762771  0.61975930     0.05100
H1164       H  0.06808620  0.53816787  0.67643407     0.08300
H1165       H  0.08034657  0.49950948  0.64210433     0.08300
H1166       H  0.21108863  0.63323681  0.60767813     0.08300
H1167       H  0.22687389  0.59426623  0.57619640     0.08300
H1168       H  0.23677006  0.59781418  0.63328935     0.05100
C1169       C  0.14614006  0.53298858  0.92952857    -0.20700
C1170       C  0.15192818  0.57092853  0.92591194    -0.07300
C1171       C  0.15491382  0.58554455  0.88322888     0.13600
C1172       C  0.15253085  0.56215666  0.84698710    -0.20800
C1173       C  0.14729508  0.52485745  0.85153707    -0.07300
C1174       C  0.14403701  0.50994862  0.89297288     0.13600
C1175       C  0.13929438  0.46946235  0.89861766    -0.24100
H1176       H  0.14376140  0.52027952  0.96049376     0.14900
H1177       H  0.15532491  0.57312002  0.81465614     0.14900
C1178       C  0.16118235  0.62531021  0.87324736    -0.24100
H1179       H  0.13763048  0.46201737  0.93334845     0.05100
H1180       H  0.16283554  0.45466275  0.88406957     0.08300
H1181       H  0.11367578  0.46038555  0.88229583     0.08300
H1182       H  0.18672427  0.62799838  0.85419529     0.08300
H1183       H  0.16395300  0.64364832  0.90170706     0.08300
H1184       H  0.13797462  0.63550752  0.85345628     0.05100
C1185       C  0.26479856  0.85447502  0.46781681    -0.20700
C1186       C  0.27649167  0.84380087  0.99991297    -0.07300
C1187       C  0.25599709  0.85345303  0.03766355     0.13600
C1188       C  0.22445811  0.87472091  0.03363644    -0.20800
C1189       C  0.21325300  0.88600363  0.50171698    -0.07300
C1190       C  0.23320251  0.87601250  0.46391733     0.13600
C1191       C  0.22188526  0.88770689  0.41909487    -0.24100
H1192       H  0.27932593  0.84652712  0.43867670     0.14900
H1193       H  0.20930589  0.88179856  0.06271239     0.14900
C1194       C  0.26420436  0.83915189  0.08229093    -0.24100
H1195       H  0.24078711  0.87720507  0.39370643     0.05100
H1196       H  0.22209344  0.91790243  0.41736832     0.08300
H1197       H  0.19203032  0.87710708  0.90347648     0.08300
H1198       H  0.27188092  0.81184919  0.59248797     0.08300
H1199       H  0.24249645  0.84633567  0.10602561     0.08300
H1200       H  0.28968493  0.85108128  0.09573230     0.05100
C1201       C  0.23069547  0.03655480  0.54509226    -0.20700
C1202       C  0.21190030  0.02886522  0.00014325    -0.07300
C1203       C  0.22960508  0.04183226  0.96266562     0.13600
C1204       C  0.26259128  0.06093313  0.96730596    -0.20800
C1205       C  0.27941170  0.07099954  0.51135806    -0.07300
C1206       C  0.26338439  0.05650839  0.54896139     0.13600
C1207       C  0.28045526  0.05998746  0.59339394    -0.24100
H1208       H  0.21906933  0.02517680  0.57418972     0.14900
H1209       H  0.27516299  0.07166988  0.93843173     0.14900
C1210       C  0.21423923  0.03623599  0.91747959    -0.24100
H1211       H  0.28456823  0.03244768  0.60701451     0.05100
H1212       H  0.25938700  0.07594717  0.11112750     0.08300
H1213       H  0.30743324  0.07337408  0.59304125     0.08300
H1214       H  0.18635543  0.04811215  0.91550362     0.08300
H1215       H  0.21284653  0.01134260  0.41201602     0.08300
H1216       H  0.23121053  0.04965412  0.89256539     0.05100
C1217       C  0.95476639  0.20678845  0.98690695    -0.20700
C1218       C  0.93814001  0.17461302  0.00068012    -0.07300
C1219       C  0.90420079  0.17558747  0.51213454     0.13600
C1220       C  0.88527374  0.20885385  0.51322787    -0.20800
C1221       C  0.90150478  0.24124376  0.49881852    -0.07300
C1222       C  0.93612529  0.24018393  0.98846419     0.13600
C1223       C  0.95761849  0.27401104  0.97824774    -0.24100
H1224       H  0.98297216  0.20603850  0.97610651     0.14900
H1225       H  0.85707447  0.20905646  0.52370973     0.14900
C1226       C  0.88515985  0.14124275  0.52580620    -0.24100
H1227       H  0.98297370  0.27480165  0.99828307     0.05100
H1228       H  0.94559500  0.29992152  0.48635021     0.08300
H1229       H  0.96530506  0.27361788  0.94342990     0.08300
H1230       H  0.89988796  0.12913638  0.55368000     0.08300
H1231       H  0.88264657  0.12119521  0.00617323     0.08300
H1232       H  0.85648484  0.14658974  0.53584988     0.05100
C1233       C  0.08503105  0.18825729  0.45744875    -0.20700
C1234       C  0.08392053  0.16746315  0.49546106    -0.07300
C1235       C  0.10715943  0.17468422  0.02921289     0.13600
C1236       C  0.12836297  0.20651359  0.02699002    -0.20800
C1237       C  0.12458137  0.23075204  0.99242522    -0.07300
C1238       C  0.10531191  0.22070096  0.45541007     0.13600
C1239       C  0.10280285  0.24334164  0.41517662    -0.24100
H1240       H  0.06856778  0.17999936  0.42962935     0.14900
H1241       H  0.14791260  0.21279790  0.05263347     0.14900
C1242       C  0.11304957  0.14947521  0.06674800    -0.24100
H1243       H  0.08404107  0.23096704  0.39058581     0.05100
H1244       H  0.11881675  0.25206358  0.90333472     0.08300
H1245       H  0.09206342  0.27074275  0.42385809     0.08300
H1246       H  0.11961625  0.12166736  0.05434894     0.08300
H1247       H  0.08031450  0.15721099  0.58920813     0.08300
H1248       H  0.13606185  0.15868978  0.08791836     0.05100
C1249       C  0.78682431  0.86521309  0.97633136    -0.20700
C1250       C  0.79019162  0.89423637  0.00623251    -0.07300
C1251       C  0.76368010  0.89945111  0.53724622     0.13600
C1252       C  0.73277972  0.87663433  0.53547261    -0.20800
C1253       C  0.72809476  0.85070034  0.50214753    -0.07300
C1254       C  0.75572599  0.84276192  0.97556653     0.13600
C1255       C  0.75484718  0.81157718  0.94315356    -0.24100
H1256       H  0.80867978  0.85992573  0.95342143     0.14900
H1257       H  0.71155142  0.87986901  0.55948321     0.14900
C1258       C  0.76600892  0.92799275  0.57292973    -0.24100
H1259       H  0.77863287  0.79341218  0.94881893     0.05100
H1260       H  0.75640701  0.82234772  0.90974329     0.08300
H1261       H  0.72965293  0.80032731  0.43664728     0.08300
H1262       H  0.76639202  0.95845770  0.05035536     0.08300
H1263       H  0.79007483  0.92270823  0.59401215     0.08300
H1264       H  0.74140238  0.92785705  0.59392359     0.05100
C1265       C  0.77109350  0.04456085  0.46683015    -0.20700
C1266       C  0.79579903  0.04438638  0.50210108    -0.07300
C1267       C  0.78760504  0.06572337  0.03742195     0.13600
C1268       C  0.75589310  0.08728030  0.03713820    -0.20800
C1269       C  0.72896636  0.08298551  0.00476758    -0.07300
C1270       C  0.73909120  0.06589275  0.46746128     0.13600
C1271       C  0.71295136  0.06182401  0.42969505    -0.24100
H1272       H  0.77577569  0.02650328  0.43921190     0.14900
H1273       H  0.75176014  0.10742567  0.06277984     0.14900
C1274       C  0.81528613  0.07163964  0.07328598    -0.24100
H1275       H  0.70543560  0.03266563  0.42528546     0.05100
H1276       H  0.72634738  0.07133844  0.39968156     0.08300
H1277       H  0.68164576  0.06738111  0.93908965     0.08300
H1278       H  0.84322864  0.07775944  0.56400714     0.08300
H1279       H  0.81672633  0.04721304  0.09397022     0.08300
H1280       H  0.80796466  0.09520722  0.09458836     0.05100
C1281       C  0.89629152  0.69905322  0.96083189    -0.20700
C1282       C  0.87442379  0.69412720  0.99737391    -0.07300
C1283       C  0.87249418  0.72415483  0.52619992     0.13600
C1284       C  0.89600662  0.75431128  0.52419233    -0.20800
C1285       C  0.92465887  0.75527091  0.49417803    -0.07300
C1286       C  0.91975246  0.72923910  0.95777674     0.13600
C1287       C  0.94400231  0.73173545  0.91849032    -0.24100
H1288       H  0.89574832  0.67858206  0.93507466     0.14900
H1289       H  0.89196780  0.77734309  0.54612448     0.14900
C1290       C  0.84138893  0.72494670  0.55803893    -0.24100
H1291       H  0.94037957  0.70796503  0.89608464     0.05100
H1292       H  0.98796928  0.72677422  0.45294769     0.08300
H1293       H  0.93717815  0.75655286  0.90001177     0.08300
H1294       H  0.84388871  0.70212958  0.58102735     0.08300
H1295       H  0.82009932  0.71740294  0.05671232     0.08300
H1296       H  0.84085461  0.75076087  0.57735165     0.05100
C1297       C  0.07204408  0.73140948  0.53580394    -0.20700
C1298       C  0.06830135  0.75007529  0.99569834    -0.07300
C1299       C  0.08879284  0.73765424  0.95945876     0.13600
C1300       C  0.11010235  0.70598000  0.96301268    -0.20800
C1301       C  0.11143876  0.68635167  0.50095667    -0.07300
C1302       C  0.09144262  0.69839299  0.53759825     0.13600
C1303       C  0.08799532  0.67644095  0.57827710    -0.24100
H1304       H  0.05630569  0.73989178  0.56393374     0.14900
H1305       H  0.12586610  0.69660613  0.93530857     0.14900
C1306       C  0.08864044  0.75732294  0.91688235    -0.24100
H1307       H  0.05860533  0.67169019  0.58520297     0.05100
H1308       H  0.11625282  0.67543568  0.09453797     0.08300
H1309       H  0.10108023  0.64939771  0.57576120     0.08300
H1310       H  0.06081270  0.75659688  0.90233652     0.08300
H1311       H  0.11178739  0.74938345  0.39608746     0.08300
H1312       H  0.09756430  0.78599890  0.92212315     0.05100
loop_ 
_geom_bond_atom_site_label_1 
_geom_bond_atom_site_label_2 
_geom_bond_distance 
_geom_bond_site_symmetry_2 
_ccdc_geom_bond_type 
O1            V9   1.907       .  S
O1           C11   1.268   1_554  A
O2            V9   1.907   1_455  S
O2          C668   1.267   1_554  A
O3            V9   1.897       .  S
O3           C13   1.262   1_554  A
O4            V9   1.893   1_455  S
O4          C670   1.263   1_554  A
O5           V10   1.907   1_455  S
O5           C14   1.266       .  A
O6           V10   1.914       .  S
O6          C669   1.268       .  A
O7           V10   1.898   1_455  S
O7           C12   1.263       .  A
O8           V10   1.895       .  S
O8          C667   1.263       .  A
V9          V666   2.085   1_554  T
V10         V665   2.086       .  T
C11         O664   1.261       .  A
C11         C629   1.486       .  S
C12         O658   1.265       .  A
C12         C711   1.468       .  S
C13         O662   1.268       .  A
C13         C683   1.473       .  S
C14         O660   1.265       .  A
C14         C642   1.496       .  S
O15          V23   1.908       .  S
O15          C25   1.267       .  A
O16          V23   1.910   1_545  S
O16         C682   1.267       .  A
O17          V23   1.909       .  S
O17          C27   1.265       .  A
O18          V23   1.907   1_545  S
O18         C684   1.266       .  A
O19          V24   1.904   1_545  S
O19          C28   1.266       .  A
O20          V24   1.907       .  S
O20         C683   1.267   1_554  A
O21          V24   1.896   1_545  S
O21          C26   1.262   1_554  A
O22          V24   1.893       .  S
O22         C681   1.262       .  A
V23         V680   2.085       .  T
V24         V679   2.086   1_554  T
C25         O678   1.263       .  A
C25         C594   1.488       .  S
C26         O672   1.268       .  A
C26         C696   1.472       .  S
C27         O676   1.267       .  A
C27         C669   1.479       .  S
C28         O674   1.264   1_554  A
C28         C610   1.486       .  S
O29          V37   1.906       .  S
O29          C39   1.266   1_554  A
O30          V37   1.905   1_655  S
O30         C696   1.266   1_554  A
O31          V37   1.898       .  S
O31          C41   1.262   1_554  A
O32          V37   1.896   1_655  S
O32         C698   1.262   1_554  A
O33          V38   1.902   1_655  S
O33          C42   1.264       .  A
O34          V38   1.903       .  S
O34         C697   1.266       .  A
O35          V38   1.905   1_655  S
O35          C40   1.264       .  A
O36          V38   1.897       .  S
O36         C695   1.264       .  A
V37         V694   2.088   1_554  T
V38         V693   2.087       .  T
C39         O692   1.264       .  A
C39         C578   1.486       .  S
C40         O686   1.265       .  A
C40         C682   1.472       .  S
C41         O690   1.265       .  A
C41         C710   1.466       .  S
C42         O688   1.262       .  A
C42         C562   1.469       .  S
O43          V51   1.899       .  S
O43          C53   1.268   1_554  A
O44          V51   1.904       .  S
O44         C710   1.266   1_564  A
O45          V51   1.896       .  S
O45          C55   1.261   1_554  A
O46          V51   1.891       .  S
O46         C712   1.262   1_564  A
O47          V52   1.898       .  S
O47          C56   1.265   1_565  A
O48          V52   1.903       .  S
O48         C711   1.265       .  A
O49          V52   1.896       .  S
O49          C54   1.262   1_565  A
O50          V52   1.895       .  S
O50         C709   1.262       .  A
V51         V708   2.085   1_554  T
V52         V707   2.085       .  T
C53         O706   1.261       .  A
C53         C533   1.494       .  S
C54         O700   1.266   1_545  A
C54         C697   1.466       .  S
C55         O704   1.267       .  A
C55         C668   1.469       .  S
C56         O702   1.263   1_545  A
C56         C546   1.490       .  S
C57          C58   1.533       .  S
C57          C63   1.542       .  S
C57          C61   1.537       .  S
C57         C514   1.535       .  S
C58          H65   1.087       .  S
C58         C715   1.364       .  D
C59          C60   1.545       .  S
C59         C714   1.364   1_554  D
C59         C645   1.489       .  S
C60          C64   1.546       .  S
C60          C62   1.544       .  S
C60          H66   1.108       .  S
C61          H67   1.086       .  S
C61         C718   1.363       .  D
C62         C717   1.360   1_554  D
C62         C485   1.483       .  S
C63         H724   1.082       .  S
C63         C720   1.364       .  D
C64         C719   1.364       .  D
C64         C498   1.487       .  S
H68         C719   1.080       .  S
C69          C70   1.536       .  S
C69          C75   1.539   1_554  S
C69          C73   1.539       .  S
C69         C466   1.545       .  S
C70          H77   1.081       .  S
C70         C727   1.366       .  D
C71          C72   1.552       .  S
C71         C726   1.367       .  D
C71         C530   1.504       .  S
C72          C76   1.550       .  S
C72          C74   1.547       .  S
C72          H78   1.108       .  S
C73          H79   1.087       .  S
C73         C730   1.368   1_554  D
C74         C729   1.363       .  D
C74         C482   1.496       .  S
C75         H736   1.080       .  S
C75         C732   1.361       .  D
C76         C731   1.361       .  D
C76         C450   1.489       .  S
H80         C731   1.081       .  S
O81          V89   1.895       .  S
O81          C91   1.262       .  A
O82          V89   1.899       .  S
O82          C92   1.263       .  A
O83          V89   1.898       .  S
O83          C93   1.262       .  A
O84          V89   1.896       .  S
O84          C94   1.263       .  A
O85          V90   1.895       .  S
O85          C94   1.261       .  A
O86          V90   1.894       .  S
O86          C93   1.261       .  A
O87          V90   1.919       .  S
O87          C92   1.270       .  A
O88          V90   1.919       .  S
O88          C91   1.270       .  A
V89          V90   2.085       .  T
C91         C421   1.502       .  S
C92         C453   1.504       .  S
C93         C469   1.463       .  S
C94         C434   1.465       .  S
C95          C96   1.535       .  S
C95         C101   1.543       .  S
C95          C99   1.538       .  S
C95         C437   1.542       .  S
C96         H103   1.085       .  S
C96         C753   1.362       .  D
C97          C98   1.537       .  S
C97         C752   1.361   1_554  D
C97         C597   1.481       .  S
C98         C102   1.553       .  S
C98         C100   1.550       .  S
C98         H104   1.107       .  S
C99         H105   1.086       .  S
C99         C756   1.367       .  D
C100        C755   1.367   1_554  D
C100        C402   1.507       .  S
C101        H762   1.081       .  S
C101        C758   1.364       .  D
C102        C757   1.364       .  D
C102        C418   1.489       .  S
H106        C757   1.081       .  S
C107        C108   1.531       .  S
C107        C113   1.531   1_554  S
C107        C111   1.544       .  S
C107        C389   1.532       .  S
C108        H115   1.086       .  S
C108        C765   1.361       .  D
C109        C110   1.535       .  S
C109        C764   1.361       .  D
C109        C626   1.480       .  S
C110        C114   1.555       .  S
C110        C112   1.548       .  S
C110        H116   1.108       .  S
C111        H117   1.083       .  S
C111        C768   1.365   1_554  D
C112        C767   1.366       .  D
C112        C405   1.503       .  S
C113        H774   1.086       .  S
C113        C770   1.363       .  D
C114        C769   1.365       .  D
C114        C370   1.487       .  S
H118        C769   1.086       .  S
C119        C120   1.542       .  S
C119        C125   1.524       .  S
C119        C123   1.536       .  S
C119        C357   1.532       .  S
C120        H127   1.082       .  S
C120        C777   1.367       .  D
C121        C122   1.551       .  S
C121        C776   1.367   1_554  D
C121        C549   1.496       .  S
C122        C126   1.554       .  S
C122        C124   1.546       .  S
C122        H128   1.109       .  S
C123        H129   1.087       .  S
C123        C780   1.362       .  D
C124        C779   1.361   1_554  D
C124        C325   1.491       .  S
C125        H786   1.087       .  S
C125        C782   1.360       .  D
C126        C781   1.361       .  D
C126        C338   1.487       .  S
H130        C781   1.087       .  S
C131        C132   1.533       .  S
C131        C137   1.541   1_554  S
C131        C135   1.539       .  S
C131        C306   1.534       .  S
C132        H139   1.087       .  S
C132        C789   1.361   1_554  D
C133        C134   1.541       .  S
C133        C788   1.363       .  D
C133        C581   1.487       .  S
C134        C138   1.541       .  S
C134        C136   1.542       .  S
C134        H140   1.109       .  S
C135        H141   1.086       .  S
C135        C792   1.366   1_554  D
C136        C791   1.362       .  D
C136        C322   1.480       .  S
C137        H798   1.082       .  S
C137        C794   1.360       .  D
C138        C793   1.361       .  D
C138        C290   1.481       .  S
H142        C793   1.080       .  S
O143        V151   1.905       .  S
O143        C153   1.267       .  A
O144        V151   1.906       .  S
O144        C154   1.267       .  A
O145        V151   1.893       .  S
O145        C155   1.262       .  A
O146        V151   1.895       .  S
O146        C156   1.262       .  A
O147        V152   1.892       .  S
O147        C156   1.262       .  A
O148        V152   1.892       .  S
O148        C155   1.262       .  A
O149        V152   1.903       .  S
O149        C154   1.265       .  A
O150        V152   1.901       .  S
O150        C153   1.265       .  A
V151        V152   2.084       .  T
C153        C293   1.496       .  S
C154        C501   1.498       .  S
C155        C517   1.463       .  S
C156        C309   1.462       .  S
O157        V165   1.909       .  S
O157        C167   1.266       .  A
O158        V165   1.912       .  S
O158        C168   1.268       .  A
O159        V165   1.892       .  S
O159        C169   1.264       .  A
O160        V165   1.892       .  S
O160        C170   1.263       .  A
O161        V166   1.894       .  S
O161        C170   1.263       .  A
O162        V166   1.889       .  S
O162        C169   1.261       .  A
O163        V166   1.905       .  S
O163        C168   1.265       .  A
O164        V166   1.903       .  S
O164        C167   1.265       .  A
V165        V166   2.083       .  T
C167        C261   1.492       .  S
C168        C341   1.504       .  S
C169        C354   1.482       .  S
C170        C274   1.478       .  S
C171        C172   1.532       .  S
C171        C177   1.533       .  S
C171        C175   1.548       .  S
C171        C277   1.540       .  S
C172        H179   1.086       .  S
C172        C829   1.364       .  D
C173        C174   1.544       .  S
C173        C828   1.368       .  D
C173        C613   1.492       .  S
C174        C178   1.540       .  S
C174        C176   1.546       .  S
C174        H180   1.108       .  S
C175        H181   1.080       .  S
C175        C832   1.366       .  D
C176        C831   1.369       .  D
C176        C242   1.493       .  S
C177        H838   1.086       .  S
C177        C834   1.361   1_554  D
C178        C833   1.360       .  D
C178        C258   1.492       .  S
H182        C833   1.087       .  S
C183        C184   1.535       .  S
C183        C189   1.538       .  S
C183        C187   1.542       .  S
C183        C226   1.535       .  S
C184        H191   1.086       .  S
C184        C841   1.371       .  D
C185        C186   1.542   1_556  S
C185        C840   1.373       .  D
C185        C565   1.494   1_556  S
C186        C190   1.541       .  S
C186        C188   1.540   1_554  S
C186        H192   1.110       .  S
C187        H193   1.083       .  S
C187        C844   1.355       .  D
C188        C843   1.356       .  D
C188        C245   1.477       .  S
C189        H850   1.086       .  S
C189        C846   1.363       .  D
C190        C845   1.364   1_554  D
C190        C210   1.487       .  S
H194        C845   1.086       .  S
O195        V203   1.898       .  S
O195        C205   1.263       .  A
O196        V203   1.899       .  S
O196        C206   1.263       .  A
O197        V203   1.893       .  S
O197        C207   1.263       .  A
O198        V203   1.892       .  S
O198        C208   1.263       .  A
O199        V204   1.891       .  S
O199        C208   1.262       .  A
O200        V204   1.892       .  S
O200        C207   1.262       .  A
O201        V204   1.912       .  S
O201        C206   1.270       .  A
O202        V204   1.916       .  S
O202        C205   1.269       .  A
V203        V204   2.084       .  T
C205        C373   1.501       .  S
C206        C213   1.498       .  S
C207        C229   1.471       .  S
C208        C386   1.470       .  S
C209        C210   1.399       .  A
C209        C214   1.410       .  A
C209        H216   1.084       .  S
C210        C211   1.412       .  A
C211        C218   1.505       .  S
C211        C212   1.405       .  A
C212        C213   1.407       .  A
C212        H217   1.083       .  S
C213        C214   1.425       .  A
C214        C215   1.508       .  S
C215        H219   1.111       .  S
C215        H220   1.109       .  S
C215        H221   1.110       .  S
C218        H222   1.106       .  S
C218        H223   1.110       .  S
C218        H224   1.111       .  S
C225        C226   1.413       .  A
C225        C230   1.398       .  A
C225        H232   1.078       .  S
C226        C227   1.424       .  A
C227        C234   1.509       .  S
C227        C228   1.402       .  A
C228        C229   1.400       .  A
C228        H233   1.085       .  S
C229        C230   1.408       .  A
C230        C231   1.510       .  S
C231        H235   1.111       .  S
C231        H236   1.110       .  S
C231        H237   1.109       .  S
C234        H238   1.111       .  S
C234        H239   1.104       .  S
C234        H240   1.110       .  S
C241        C242   1.404       .  A
C241        C246   1.397       .  A
C241        H248   1.082       .  S
C242        C899   1.422       .  A
C243        C250   1.508       .  S
C243        C244   1.403       .  A
C243        C898   1.421       .  A
C244        C245   1.399   1_554  A
C244        H249   1.085       .  S
C245        C902   1.417       .  A
C246        C247   1.507       .  S
C246        C901   1.414       .  A
C247        H251   1.110       .  S
C247        H253   1.105       .  S
C247        H908   1.110       .  S
C250        H254   1.110       .  S
C250        H256   1.111       .  S
C250        H911   1.107       .  S
H252        C903   1.110       .  S
H255        C906   1.108       .  S
C257        C258   1.403       .  A
C257        C262   1.404       .  A
C257        H264   1.084       .  S
C258        C259   1.414       .  A
C259        C266   1.506       .  S
C259        C260   1.411       .  A
C260        C261   1.408       .  A
C260        H265   1.084       .  S
C261        C262   1.419       .  A
C262        C263   1.509       .  S
C263        H267   1.111       .  S
C263        H268   1.110       .  S
C263        H269   1.111       .  S
C266        H270   1.108       .  S
C266        H271   1.111       .  S
C266        H272   1.111       .  S
C273        C274   1.400       .  A
C273        C278   1.404       .  A
C273        H280   1.084       .  S
C274        C275   1.410       .  A
C275        C282   1.511       .  S
C275        C276   1.399       .  A
C276        C277   1.413       .  A
C276        H281   1.075       .  S
C277        C278   1.430       .  A
C278        C279   1.516       .  S
C279        H283   1.106       .  S
C279        H284   1.105       .  S
C279        H285   1.111       .  S
C282        H286   1.110       .  S
C282        H287   1.109       .  S
C282        H288   1.111       .  S
C289        C290   1.399       .  A
C289        C294   1.405       .  A
C289        H296   1.083       .  S
C290        C291   1.408       .  A
C291        C298   1.505       .  S
C291        C292   1.406       .  A
C292        C293   1.410       .  A
C292        H297   1.084       .  S
C293        C294   1.423       .  A
C294        C295   1.508       .  S
C295        H299   1.111       .  S
C295        H300   1.110       .  S
C295        H301   1.110       .  S
C298        H302   1.110       .  S
C298        H303   1.109       .  S
C298        H304   1.111       .  S
C305        C306   1.414       .  A
C305        C310   1.398       .  A
C305        H312   1.076       .  S
C306        C307   1.430       .  A
C307        C314   1.512       .  S
C307        C308   1.402       .  A
C308        C309   1.395       .  A
C308        H313   1.085       .  S
C309        C310   1.404       .  A
C310        C311   1.509       .  S
C311        H315   1.111       .  S
C311        H316   1.111       .  S
C311        H317   1.109       .  S
C314        H318   1.103       .  S
C314        H319   1.111       .  S
C314        H320   1.110       .  S
C321        C322   1.398       .  A
C321        C326   1.396       .  A
C321        H328   1.079       .  S
C322        C979   1.413       .  A
C323        C330   1.506       .  S
C323        C324   1.407   1_556  A
C323        C978   1.416       .  A
C324        C325   1.406       .  A
C324        H329   1.085       .  S
C325        C982   1.413   1_554  A
C326        C327   1.500       .  S
C326        C981   1.413       .  A
C327        H331   1.111       .  S
C327        H333   1.104       .  S
C327        H988   1.106       .  S
C330        H334   1.110   1_556  S
C330        H336   1.110       .  S
C330        H991   1.107       .  S
H332        C983   1.107   1_554  S
H335        C986   1.106       .  S
C337        C338   1.401       .  A
C337        C342   1.409       .  A
C337        H344   1.084       .  S
C338        C339   1.410       .  A
C339        C346   1.506       .  S
C339        C340   1.409       .  A
C340        C341   1.411       .  A
C340        H345   1.083       .  S
C341        C342   1.424       .  A
C342        C343   1.508       .  S
C343        H347   1.111       .  S
C343        H348   1.110       .  S
C343        H349   1.110       .  S
C346        H350   1.110       .  S
C346        H351   1.109       .  S
C346        H352   1.111       .  S
C353        C354   1.403       .  A
C353        C358   1.398       .  A
C353        H360   1.084       .  S
C354        C355   1.415       .  A
C355        C362   1.510       .  S
C355        C356   1.400       .  A
C356        C357   1.410       .  A
C356        H361   1.077       .  S
C357        C358   1.424       .  A
C358        C359   1.512       .  S
C359        H363   1.110       .  S
C359        H364   1.111       .  S
C359        H365   1.103       .  S
C362        H366   1.110       .  S
C362        H367   1.111       .  S
C362        H368   1.111       .  S
C369        C370   1.400       .  A
C369        C374   1.407       .  A
C369        H376   1.082       .  S
C370        C371   1.414       .  A
C371        C378   1.507       .  S
C371        C372   1.408       .  A
C372        C373   1.409       .  A
C372        H377   1.084       .  S
C373        C374   1.424       .  A
C374        C375   1.509       .  S
C375        H379   1.111       .  S
C375        H380   1.110       .  S
C375        H381   1.110       .  S
C378        H382   1.111       .  S
C378        H383   1.108       .  S
C378        H384   1.110       .  S
C385        C386   1.401       .  A
C385        C390   1.402       .  A
C385        H392   1.085       .  S
C386        C387   1.407       .  A
C387        C394   1.510       .  S
C387        C388   1.398       .  A
C388        C389   1.413       .  A
C388        H393   1.078       .  S
C389        C390   1.425       .  A
C390        C391   1.511       .  S
C391        H395   1.111       .  S
C391        H396   1.104       .  S
C391        H397   1.110       .  S
C394        H398   1.110       .  S
C394        H399   1.109       .  S
C394        H400   1.111       .  S
C401        C406   1.405       .  A
C401       C1058   1.412       .  A
C401        H408   1.081       .  S
C402        C403   1.416       .  A
C402       C1057   1.416   1_554  A
C403        C410   1.505       .  S
C403        C404   1.402       .  A
C404       C1061   1.410   1_554  A
C404        H409   1.084       .  S
C405        C406   1.414       .  A
C405       C1060   1.413       .  A
C406        C407   1.504       .  S
C407        H411   1.111       .  S
C407        H413   1.110       .  S
C407       H1068   1.099       .  S
C410        H414   1.100       .  S
C410        H416   1.111       .  S
C410       H1071   1.110       .  S
H412       C1063   1.108       .  S
H415       C1066   1.110       .  S
C417        C418   1.399       .  A
C417        C422   1.406       .  A
C417        H424   1.084       .  S
C418        C419   1.411       .  A
C419        C426   1.504       .  S
C419        C420   1.410       .  A
C420        C421   1.409       .  A
C420        H425   1.083       .  S
C421        C422   1.426       .  A
C422        C423   1.509       .  S
C423        H427   1.111       .  S
C423        H428   1.110       .  S
C423        H429   1.110       .  S
C426        H430   1.110       .  S
C426        H431   1.108       .  S
C426        H432   1.111       .  S
C433        C434   1.393       .  A
C433        C438   1.403       .  A
C433        H440   1.085       .  S
C434        C435   1.404       .  A
C435        C442   1.509       .  S
C435        C436   1.403       .  A
C436        C437   1.415       .  A
C436        H441   1.075       .  S
C437        C438   1.433       .  A
C438        C439   1.514       .  S
C439        H443   1.111       .  S
C439        H444   1.101       .  S
C439        H445   1.106       .  S
C442        H446   1.111       .  S
C442        H447   1.110       .  S
C442        H448   1.111       .  S
C449        C450   1.399       .  A
C449        C454   1.409       .  A
C449        H456   1.085       .  S
C450        C451   1.413       .  A
C451        C458   1.506       .  S
C451        C452   1.409       .  A
C452        C453   1.409       .  A
C452        H457   1.083       .  S
C453        C454   1.426       .  A
C454        C455   1.508       .  S
C455        H459   1.111       .  S
C455        H460   1.111       .  S
C455        H461   1.109       .  S
C458        H462   1.110       .  S
C458        H463   1.107       .  S
C458        H464   1.111       .  S
C465        C466   1.417       .  A
C465        C470   1.403       .  A
C465        H472   1.073       .  S
C466        C467   1.435       .  A
C467        C474   1.508       .  S
C467        C468   1.400       .  A
C468        C469   1.389       .  A
C468        H473   1.086       .  S
C469        C470   1.404       .  A
C470        C471   1.509       .  S
C471        H475   1.111       .  S
C471        H476   1.110       .  S
C471        H477   1.110       .  S
C474        H478   1.111       .  S
C474        H479   1.093       .  S
C474        H480   1.110       .  S
C481        C486   1.406   1_556  A
C481       C1138   1.408       .  A
C481        H488   1.084       .  S
C482        C483   1.418       .  A
C482       C1137   1.407       .  A
C483        C490   1.499       .  S
C483        C484   1.399       .  A
C484       C1141   1.398       .  A
C484        H489   1.083       .  S
C485        C486   1.415       .  A
C485       C1140   1.397   1_554  A
C486        C487   1.507       .  S
C487        H491   1.110       .  S
C487        H493   1.106       .  S
C487       H1148   1.110   1_554  S
C490        H494   1.111       .  S
C490        H496   1.106       .  S
C490       H1151   1.103       .  S
H492       C1143   1.110       .  S
H495       C1146   1.100   1_554  S
C497        C498   1.402       .  A
C497        C502   1.406       .  A
C497        H504   1.084       .  S
C498        C499   1.409       .  A
C499        C506   1.504       .  S
C499        C500   1.408       .  A
C500        C501   1.410       .  A
C500        H505   1.084       .  S
C501        C502   1.422       .  A
C502        C503   1.508       .  S
C503        H507   1.111       .  S
C503        H508   1.110       .  S
C503        H509   1.109       .  S
C506        H510   1.110       .  S
C506        H511   1.107       .  S
C506        H512   1.111       .  S
C513        C514   1.414       .  A
C513        C518   1.400       .  A
C513        H520   1.076       .  S
C514        C515   1.430       .  A
C515        C522   1.513       .  S
C515        C516   1.400       .  A
C516        C517   1.394       .  A
C516        H521   1.085       .  S
C517        C518   1.405       .  A
C518        C519   1.510       .  S
C519        H523   1.111       .  S
C519        H524   1.111       .  S
C519        H525   1.110       .  S
C522        H526   1.110       .  S
C522        H527   1.103       .  S
C522        H528   1.111       .  S
C529        C534   1.411       .  A
C529       C1186   1.406       .  A
C529        H536   1.082       .  S
C530        C531   1.427       .  A
C530       C1185   1.404       .  A
C531        C538   1.509       .  S
C531        C532   1.404       .  A
C532       C1189   1.403       .  A
C532        H537   1.083       .  S
C533        C534   1.422       .  A
C533       C1188   1.399   1_556  A
C534        C535   1.507       .  S
C535        H539   1.111       .  S
C535        H540   1.110       .  S
C535       H1197   1.110       .  S
C538        H543   1.111       .  S
C538        H544   1.106       .  S
C538       H1198   1.104       .  S
H541       C1191   1.110       .  S
H542       C1194   1.103       .  S
C545        C550   1.405       .  A
C545       C1202   1.411       .  A
C545        H552   1.084       .  S
C546        C547   1.416       .  A
C546       C1201   1.410       .  A
C547        C554   1.509       .  S
C547        C548   1.399       .  A
C548       C1205   1.409       .  A
C548        H553   1.084       .  S
C549        C550   1.412       .  A
C549       C1204   1.410   1_554  A
C550        C551   1.505       .  S
C551        H555   1.110       .  S
C551        H557   1.104       .  S
C551       H1212   1.110       .  S
C554        H558   1.110       .  S
C554        H560   1.111       .  S
C554       H1215   1.110       .  S
H556       C1207   1.110       .  S
H559       C1210   1.110       .  S
C561        C562   1.401       .  A
C561        C566   1.403       .  A
C561        H568   1.085       .  S
C562       C1219   1.407       .  A
C563        C570   1.506       .  S
C563        C564   1.403       .  A
C563       C1218   1.407       .  A
C564        C565   1.408       .  A
C564        H569   1.082       .  S
C565       C1222   1.418   1_554  A
C566        C567   1.508       .  S
C566       C1221   1.418       .  A
C567        H571   1.111       .  S
C567        H573   1.110       .  S
C567       H1228   1.107       .  S
C570        H574   1.110       .  S
C570        H576   1.111       .  S
C570       H1231   1.110       .  S
H572       C1223   1.107       .  S
H575       C1226   1.110       .  S
C577        C578   1.408       .  A
C577        C582   1.404       .  A
C577        H584   1.084       .  S
C578       C1235   1.416   1_556  A
C579        C586   1.508       .  S
C579        C580   1.403       .  A
C579       C1234   1.417       .  A
C580        C581   1.405       .  A
C580        H585   1.084       .  S
C581       C1238   1.410       .  A
C582        C583   1.506       .  S
C582       C1237   1.408       .  A
C583        H587   1.111       .  S
C583        H589   1.109       .  S
C583       H1244   1.109       .  S
C586        H590   1.111       .  S
C586        H592   1.111       .  S
C586       H1247   1.109       .  S
H588       C1239   1.107       .  S
H591       C1242   1.109       .  S
C593        C594   1.403       .  A
C593        C598   1.404       .  A
C593        H600   1.084       .  S
C594       C1251   1.420       .  A
C595        C602   1.509       .  S
C595        C596   1.405       .  A
C595       C1250   1.419       .  A
C596        C597   1.398       .  A
C596        H601   1.081       .  S
C597       C1254   1.416   1_554  A
C598        C599   1.507       .  S
C598       C1253   1.417       .  A
C599        H603   1.111       .  S
C599        H604   1.110       .  S
C599       H1261   1.105       .  S
C602        H607   1.109       .  S
C602        H608   1.111       .  S
C602       H1262   1.111       .  S
H605       C1255   1.104       .  S
H606       C1258   1.111       .  S
C609        C610   1.409   1_556  A
C609        C614   1.404       .  A
C609        H616   1.084       .  S
C610       C1267   1.415       .  A
C611        C618   1.508       .  S
C611        C612   1.406       .  A
C611       C1266   1.418       .  A
C612        C613   1.406       .  A
C612        H617   1.084       .  S
C613       C1270   1.413       .  A
C614        C615   1.507       .  S
C614       C1269   1.410   1_556  A
C615        H619   1.110       .  S
C615        H620   1.110       .  S
C615       H1277   1.107       .  S
C618        H623   1.109       .  S
C618        H624   1.111       .  S
C618       H1278   1.110       .  S
H621       C1271   1.105       .  S
H622       C1274   1.110       .  S
C625        C626   1.399       .  A
C625        C630   1.405       .  A
C625        H632   1.083       .  S
C626       C1283   1.414       .  A
C627        C634   1.508       .  S
C627        C628   1.403       .  A
C627       C1282   1.416   1_554  A
C628        C629   1.402   1_554  A
C628        H633   1.084       .  S
C629       C1286   1.422       .  A
C630        C631   1.508       .  S
C630       C1285   1.419       .  A
C631        H635   1.111       .  S
C631        H637   1.110       .  S
C631       H1292   1.110       .  S
C634        H638   1.107       .  S
C634        H640   1.111       .  S
C634       H1295   1.107       .  S
H636       C1287   1.111       .  S
H639       C1290   1.107       .  S
C641        C646   1.407       .  A
C641       C1298   1.412   1_554  A
C641        H648   1.083       .  S
C642        C643   1.419       .  A
C642       C1297   1.409       .  A
C643        C650   1.508       .  S
C643        C644   1.406       .  A
C644       C1301   1.406       .  A
C644        H649   1.084       .  S
C645        C646   1.410       .  A
C645       C1300   1.406   1_554  A
C646        C647   1.508       .  S
C647        H651   1.110       .  S
C647        H653   1.110       .  S
C647       H1308   1.107       .  S
C650        H654   1.109       .  S
C650        H656   1.111       .  S
C650       H1311   1.111       .  S
H652       C1303   1.110       .  S
H655       C1306   1.111       .  S
O657        V665   1.903       .  S
O657        C667   1.266       .  A
O658        V665   1.904   1_455  S
O659        V665   1.905       .  S
O659        C669   1.265       .  A
O660        V665   1.901   1_455  S
O661        V666   1.911   1_455  S
O661        C670   1.268       .  A
O662        V666   1.912       .  S
O663        V666   1.897   1_455  S
O663        C668   1.261       .  A
O664        V666   1.892       .  S
C667       C1285   1.480       .  S
C670       C1298   1.494       .  S
O671        V679   1.909       .  S
O671        C681   1.267   1_556  A
O672        V679   1.912   1_545  S
O673        V679   1.901       .  S
O673        C683   1.263       .  A
O674        V679   1.897   1_545  S
O675        V680   1.905   1_545  S
O675        C684   1.266       .  A
O676        V680   1.909       .  S
O677        V680   1.898   1_545  S
O677        C682   1.263       .  A
O678        V680   1.897       .  S
C681       C1250   1.482       .  S
C684       C1266   1.496       .  S
O685        V693   1.903       .  S
O685        C695   1.265       .  A
O686        V693   1.902   1_655  S
O687        V693   1.897       .  S
O687        C697   1.262       .  A
O688        V693   1.895   1_655  S
O689        V694   1.901   1_655  S
O689        C698   1.264       .  A
O690        V694   1.902       .  S
O691        V694   1.903   1_655  S
O691        C696   1.263       .  A
O692        V694   1.895       .  S
C695       C1234   1.488       .  S
C698       C1218   1.470   1_556  S
O699        V707   1.904       .  S
O699        C709   1.268       .  A
O700        V707   1.904       .  S
O701        V707   1.899       .  S
O701        C711   1.263       .  A
O702        V707   1.895       .  S
O703        V708   1.903       .  S
O703        C712   1.266   1_565  A
O704        V708   1.908       .  S
O705        V708   1.896       .  S
O705        C710   1.262   1_565  A
O706        V708   1.898       .  S
C709       C1189   1.495       .  S
C712       C1202   1.491   1_556  S
C713        C714   1.535       .  S
C713        C719   1.542   1_556  S
C713        C717   1.535       .  S
C713       C1170   1.534       .  S
C714        H721   1.087       .  S
C715        C716   1.545       .  S
C715       C1301   1.492       .  S
C716        C720   1.546       .  S
C716        C718   1.546       .  S
C716        H722   1.110       .  S
C717        H723   1.087       .  S
C718       C1141   1.486       .  S
C720       C1154   1.490       .  S
C725        C726   1.537       .  S
C725        C731   1.539       .  S
C725        C729   1.536       .  S
C725       C1122   1.539       .  S
C726        H733   1.080       .  S
C727        C728   1.552   1_554  S
C727       C1186   1.504   1_554  S
C728        C732   1.552       .  S
C728        C730   1.546       .  S
C728        H734   1.107       .  S
C729        H735   1.087       .  S
C730       C1138   1.500       .  S
C732       C1106   1.491       .  S
O737        V745   1.905       .  S
O737        C747   1.265       .  A
O738        V745   1.906       .  S
O738        C748   1.265       .  A
O739        V745   1.899       .  S
O739        C749   1.263       .  A
O740        V745   1.897       .  S
O740        C750   1.263       .  A
O741        V746   1.890       .  S
O741        C750   1.260       .  A
O742        V746   1.889       .  S
O742        C749   1.261       .  A
O743        V746   1.914       .  S
O743        C748   1.269       .  A
O744        V746   1.913       .  S
O744        C747   1.269       .  A
V745        V746   2.086       .  T
C747       C1077   1.502       .  S
C748       C1109   1.505       .  S
C749       C1125   1.461       .  S
C750       C1090   1.462       .  S
C751        C752   1.535       .  S
C751        C757   1.541   1_556  S
C751        C755   1.535       .  S
C751       C1093   1.540       .  S
C752        H759   1.084       .  S
C753        C754   1.540       .  S
C753       C1253   1.485       .  S
C754        C758   1.553       .  S
C754        C756   1.547       .  S
C754        H760   1.109       .  S
C755        H761   1.086       .  S
C756       C1058   1.499       .  S
C758       C1074   1.493       .  S
C763        C764   1.535       .  S
C763        C769   1.530       .  S
C763        C767   1.545       .  S
C763       C1045   1.538       .  S
C764        H771   1.087       .  S
C765        C766   1.538   1_554  S
C765       C1282   1.483   1_554  S
C766        C770   1.555       .  S
C766        C768   1.547       .  S
C766        H772   1.106       .  S
C767        H773   1.080       .  S
C768       C1061   1.497       .  S
C770       C1026   1.489       .  S
C775        C776   1.542       .  S
C775        C781   1.524   1_556  S
C775        C779   1.537       .  S
C775       C1013   1.534       .  S
C776        H783   1.080       .  S
C777        C778   1.549       .  S
C777       C1205   1.495       .  S
C778        C782   1.548       .  S
C778        C780   1.544       .  S
C778        H784   1.108       .  S
C779        H785   1.087       .  S
C780        C981   1.487       .  S
C782        C994   1.481       .  S
C787        C788   1.536       .  S
C787        C793   1.542       .  S
C787        C791   1.538       .  S
C787        C962   1.533       .  S
C788        H795   1.087       .  S
C789        C790   1.541       .  S
C789       C1237   1.483       .  S
C790        C794   1.544       .  S
C790        C792   1.547       .  S
C790        H796   1.110       .  S
C791        H797   1.086       .  S
C792        C978   1.488       .  S
C794        C946   1.485       .  S
O799        V807   1.908       .  S
O799        C809   1.268       .  A
O800        V807   1.909       .  S
O800        C810   1.268       .  A
O801        V807   1.889       .  S
O801        C811   1.260       .  A
O802        V807   1.889       .  S
O802        C812   1.260       .  A
O803        V808   1.895       .  S
O803        C812   1.262       .  A
O804        V808   1.896       .  S
O804        C811   1.262       .  A
O805        V808   1.905       .  S
O805        C810   1.265       .  A
O806        V808   1.904       .  S
O806        C809   1.265       .  A
V807        V808   2.086       .  T
C809        C949   1.500       .  S
C810       C1157   1.499       .  S
C811       C1173   1.459       .  S
C812        C965   1.459       .  S
O813        V821   1.907       .  S
O813        C823   1.266       .  A
O814        V821   1.910       .  S
O814        C824   1.268       .  A
O815        V821   1.892       .  S
O815        C825   1.264       .  A
O816        V821   1.896       .  S
O816        C826   1.263       .  A
O817        V822   1.895       .  S
O817        C826   1.265       .  A
O818        V822   1.892       .  S
O818        C825   1.262       .  A
O819        V822   1.900       .  S
O819        C824   1.264       .  A
O820        V822   1.898       .  S
O820        C823   1.264       .  A
V821        V822   2.083       .  T
C823        C917   1.490       .  S
C824        C997   1.499       .  S
C825       C1010   1.481       .  S
C826        C930   1.488       .  S
C827        C828   1.536       .  S
C827        C833   1.531       .  S
C827        C831   1.545       .  S
C827        C933   1.542       .  S
C828        H835   1.085       .  S
C829        C830   1.541   1_554  S
C829       C1269   1.482       .  S
C830        C834   1.538       .  S
C830        C832   1.542   1_556  S
C830        H836   1.110       .  S
C831        H837   1.080       .  S
C832        C898   1.490       .  S
C834        C914   1.485       .  S
C839        C840   1.538       .  S
C839        C845   1.538       .  S
C839        C843   1.545       .  S
C839        C882   1.543       .  S
C840        H847   1.085       .  S
C841        C842   1.543       .  S
C841       C1221   1.493       .  S
C842        C846   1.540       .  S
C842        C844   1.540       .  S
C842        H848   1.110       .  S
C843        H849   1.080       .  S
C844        C901   1.474       .  S
C846        C866   1.482       .  S
O851        V859   1.896       .  S
O851        C861   1.262       .  A
O852        V859   1.893       .  S
O852        C862   1.262       .  A
O853        V859   1.890       .  S
O853        C863   1.262       .  A
O854        V859   1.889       .  S
O854        C864   1.262       .  A
O855        V860   1.898       .  S
O855        C864   1.264       .  A
O856        V860   1.900       .  S
O856        C863   1.264       .  A
O857        V860   1.919       .  S
O857        C862   1.270       .  A
O858        V860   1.921       .  S
O858        C861   1.271       .  A
V859        V860   2.082       .  T
C861       C1029   1.505       .  S
C862        C869   1.502       .  S
C863        C885   1.477       .  S
C864       C1042   1.477       .  S
C865        C866   1.396       .  A
C865        C870   1.406       .  A
C865        H872   1.085       .  S
C866        C867   1.410       .  A
C867        C874   1.506       .  S
C867        C868   1.409       .  A
C868        C869   1.410       .  A
C868        H873   1.083       .  S
C869        C870   1.428       .  A
C870        C871   1.509       .  S
C871        H875   1.111       .  S
C871        H876   1.110       .  S
C871        H877   1.111       .  S
C874        H878   1.109       .  S
C874        H879   1.111       .  S
C874        H880   1.111       .  S
C881        C882   1.414       .  A
C881        C886   1.400       .  A
C881        H888   1.074       .  S
C882        C883   1.427       .  A
C883        C890   1.508       .  S
C883        C884   1.404       .  A
C884        C885   1.400       .  A
C884        H889   1.085       .  S
C885        C886   1.410       .  A
C886        C887   1.511       .  S
C887        H891   1.111       .  S
C887        H892   1.111       .  S
C887        H893   1.109       .  S
C890        H894   1.111       .  S
C890        H895   1.100       .  S
C890        H896   1.110       .  S
C897        C898   1.402   1_556  A
C897        C902   1.399       .  A
C897        H904   1.083       .  S
C899        C906   1.508       .  S
C899        C900   1.404       .  A
C900        C901   1.399       .  A
C900        H905   1.085       .  S
C902        C903   1.507       .  S
C903        H907   1.110       .  S
C903        H909   1.104       .  S
C906        H910   1.110       .  S
C906        H912   1.111       .  S
C913        C914   1.401       .  A
C913        C918   1.403       .  A
C913        H920   1.085       .  S
C914        C915   1.411       .  A
C915        C922   1.506       .  S
C915        C916   1.409       .  A
C916        C917   1.408       .  A
C916        H921   1.084       .  S
C917        C918   1.420       .  A
C918        C919   1.509       .  S
C919        H923   1.111       .  S
C919        H924   1.110       .  S
C919        H925   1.111       .  S
C922        H926   1.109       .  S
C922        H927   1.110       .  S
C922        H928   1.111       .  S
C929        C930   1.402       .  A
C929        C934   1.404       .  A
C929        H936   1.084       .  S
C930        C931   1.414       .  A
C931        C938   1.510       .  S
C931        C932   1.403       .  A
C932        C933   1.414       .  A
C932        H937   1.075       .  S
C933        C934   1.428       .  A
C934        C935   1.515       .  S
C935        H939   1.105       .  S
C935        H940   1.106       .  S
C935        H941   1.111       .  S
C938        H942   1.111       .  S
C938        H943   1.110       .  S
C938        H944   1.111       .  S
C945        C946   1.401       .  A
C945        C950   1.406       .  A
C945        H952   1.083       .  S
C946        C947   1.408       .  A
C947        C954   1.505       .  S
C947        C948   1.409       .  A
C948        C949   1.411       .  A
C948        H953   1.083       .  S
C949        C950   1.423       .  A
C950        C951   1.508       .  S
C951        H955   1.111       .  S
C951        H956   1.110       .  S
C951        H957   1.109       .  S
C954        H958   1.110       .  S
C954        H959   1.110       .  S
C954        H960   1.111       .  S
C961        C962   1.414       .  A
C961        C966   1.398       .  A
C961        H968   1.073       .  S
C962        C963   1.433       .  A
C963        C970   1.514       .  S
C963        C964   1.400       .  A
C964        C965   1.392       .  A
C964        H969   1.086       .  S
C965        C966   1.402       .  A
C966        C967   1.508       .  S
C967        H971   1.111       .  S
C967        H972   1.110       .  S
C967        H973   1.107       .  S
C970        H974   1.101       .  S
C970        H975   1.111       .  S
C970        H976   1.110       .  S
C977        C978   1.399       .  A
C977        C982   1.399       .  A
C977        H984   1.080       .  S
C979        C986   1.506       .  S
C979        C980   1.405       .  A
C980        C981   1.407       .  A
C980        H985   1.085       .  S
C982        C983   1.498       .  S
C983        H987   1.111       .  S
C983        H989   1.105       .  S
C986        H990   1.110       .  S
C986        H992   1.110       .  S
C993        C994   1.399       .  A
C993        C998   1.406       .  A
C993       H1000   1.083       .  S
C994        C995   1.409       .  A
C995       C1002   1.507       .  S
C995        C996   1.407       .  A
C996        C997   1.410       .  A
C996       H1001   1.084       .  S
C997        C998   1.423       .  A
C998        C999   1.508       .  S
C999       H1003   1.111       .  S
C999       H1004   1.110       .  S
C999       H1005   1.110       .  S
C1002      H1006   1.110       .  S
C1002      H1007   1.110       .  S
C1002      H1008   1.111       .  S
C1009      C1010   1.402       .  A
C1009      C1014   1.398       .  A
C1009      H1016   1.085       .  S
C1010      C1011   1.414       .  A
C1011      C1018   1.510       .  S
C1011      C1012   1.401       .  A
C1012      C1013   1.412       .  A
C1012      H1017   1.075       .  S
C1013      C1014   1.425       .  A
C1014      C1015   1.512       .  S
C1015      H1019   1.111       .  S
C1015      H1020   1.111       .  S
C1015      H1021   1.101       .  S
C1018      H1022   1.110       .  S
C1018      H1023   1.111       .  S
C1018      H1024   1.111       .  S
C1025      C1026   1.398       .  A
C1025      C1030   1.408       .  A
C1025      H1032   1.081       .  S
C1026      C1027   1.414       .  A
C1027      C1034   1.507       .  S
C1027      C1028   1.409       .  A
C1028      C1029   1.409       .  A
C1028      H1033   1.084       .  S
C1029      C1030   1.426       .  A
C1030      C1031   1.509       .  S
C1031      H1035   1.111       .  S
C1031      H1036   1.109       .  S
C1031      H1037   1.111       .  S
C1034      H1038   1.111       .  S
C1034      H1039   1.108       .  S
C1034      H1040   1.110       .  S
C1041      C1042   1.402       .  A
C1041      C1046   1.405       .  A
C1041      H1048   1.085       .  S
C1042      C1043   1.409       .  A
C1043      C1050   1.511       .  S
C1043      C1044   1.398       .  A
C1044      C1045   1.414       .  A
C1044      H1049   1.075       .  S
C1045      C1046   1.427       .  A
C1046      C1047   1.511       .  S
C1047      H1051   1.111       .  S
C1047      H1052   1.103       .  S
C1047      H1053   1.110       .  S
C1050      H1054   1.111       .  S
C1050      H1055   1.109       .  S
C1050      H1056   1.111       .  S
C1057      C1062   1.405       .  A
C1057      H1064   1.080       .  S
C1058      C1059   1.413       .  A
C1059      C1066   1.505       .  S
C1059      C1060   1.399       .  A
C1060      H1065   1.084       .  S
C1061      C1062   1.409       .  A
C1062      C1063   1.506       .  S
C1063      H1067   1.111       .  S
C1063      H1069   1.105       .  S
C1066      H1070   1.098       .  S
C1066      H1072   1.111       .  S
C1073      C1074   1.402       .  A
C1073      C1078   1.408       .  A
C1073      H1080   1.084       .  S
C1074      C1075   1.410       .  A
C1075      C1082   1.503       .  S
C1075      C1076   1.410       .  A
C1076      C1077   1.409       .  A
C1076      H1081   1.084       .  S
C1077      C1078   1.423       .  A
C1078      C1079   1.509       .  S
C1079      H1083   1.111       .  S
C1079      H1084   1.109       .  S
C1079      H1085   1.110       .  S
C1082      H1086   1.111       .  S
C1082      H1087   1.107       .  S
C1082      H1088   1.111       .  S
C1089      C1090   1.391       .  A
C1089      C1094   1.401       .  A
C1089      H1096   1.085       .  S
C1090      C1091   1.404       .  A
C1091      C1098   1.510       .  S
C1091      C1092   1.402       .  A
C1092      C1093   1.415       .  A
C1092      H1097   1.074       .  S
C1093      C1094   1.435       .  A
C1094      C1095   1.515       .  S
C1095      H1099   1.111       .  S
C1095      H1100   1.104       .  S
C1095      H1101   1.105       .  S
C1098      H1102   1.110       .  S
C1098      H1103   1.110       .  S
C1098      H1104   1.111       .  S
C1105      C1106   1.401       .  A
C1105      C1110   1.412       .  A
C1105      H1112   1.084       .  S
C1106      C1107   1.412       .  A
C1107      C1114   1.507       .  S
C1107      C1108   1.409       .  A
C1108      C1109   1.409       .  A
C1108      H1113   1.083       .  S
C1109      C1110   1.425       .  A
C1110      C1111   1.507       .  S
C1111      H1115   1.111       .  S
C1111      H1116   1.111       .  S
C1111      H1117   1.109       .  S
C1114      H1118   1.110       .  S
C1114      H1119   1.109       .  S
C1114      H1120   1.111       .  S
C1121      C1122   1.415       .  A
C1121      C1126   1.401       .  A
C1121      H1128   1.074       .  S
C1122      C1123   1.434       .  A
C1123      C1130   1.511       .  S
C1123      C1124   1.400       .  A
C1124      C1125   1.390       .  A
C1124      H1129   1.086       .  S
C1125      C1126   1.404       .  A
C1126      C1127   1.509       .  S
C1127      H1131   1.111       .  S
C1127      H1132   1.108       .  S
C1127      H1133   1.110       .  S
C1130      H1134   1.110       .  S
C1130      H1135   1.097       .  S
C1130      H1136   1.111       .  S
C1137      C1142   1.407       .  A
C1137      H1144   1.084       .  S
C1138      C1139   1.421       .  A
C1139      C1146   1.500       .  S
C1139      C1140   1.401       .  A
C1140      H1145   1.083       .  S
C1141      C1142   1.417       .  A
C1142      C1143   1.507       .  S
C1143      H1147   1.111       .  S
C1143      H1149   1.107       .  S
C1146      H1150   1.111       .  S
C1146      H1152   1.105       .  S
C1153      C1154   1.402       .  A
C1153      C1158   1.406       .  A
C1153      H1160   1.084       .  S
C1154      C1155   1.410       .  A
C1155      C1162   1.505       .  S
C1155      C1156   1.409       .  A
C1156      C1157   1.410       .  A
C1156      H1161   1.084       .  S
C1157      C1158   1.422       .  A
C1158      C1159   1.508       .  S
C1159      H1163   1.111       .  S
C1159      H1164   1.110       .  S
C1159      H1165   1.107       .  S
C1162      H1166   1.109       .  S
C1162      H1167   1.110       .  S
C1162      H1168   1.111       .  S
C1169      C1170   1.415       .  A
C1169      C1174   1.399       .  A
C1169      H1176   1.073       .  S
C1170      C1171   1.433       .  A
C1171      C1178   1.514       .  S
C1171      C1172   1.400       .  A
C1172      C1173   1.392       .  A
C1172      H1177   1.086       .  S
C1173      C1174   1.403       .  A
C1174      C1175   1.509       .  S
C1175      H1179   1.111       .  S
C1175      H1180   1.110       .  S
C1175      H1181   1.109       .  S
C1178      H1182   1.111       .  S
C1178      H1183   1.101       .  S
C1178      H1184   1.110       .  S
C1185      C1190   1.405       .  A
C1185      H1192   1.082       .  S
C1186      C1187   1.427   1_556  A
C1187      C1194   1.508       .  S
C1187      C1188   1.398       .  A
C1188      H1193   1.084       .  S
C1189      C1190   1.421       .  A
C1190      C1191   1.508       .  S
C1191      H1195   1.111       .  S
C1191      H1196   1.110       .  S
C1194      H1199   1.111       .  S
C1194      H1200   1.105       .  S
C1201      C1206   1.405       .  A
C1201      H1208   1.084       .  S
C1202      C1203   1.416   1_554  A
C1203      C1210   1.509       .  S
C1203      C1204   1.400       .  A
C1204      H1209   1.083       .  S
C1205      C1206   1.413       .  A
C1206      C1207   1.505       .  S
C1207      H1211   1.111       .  S
C1207      H1213   1.102       .  S
C1210      H1214   1.110       .  S
C1210      H1216   1.111       .  S
C1217      C1218   1.401   1_556  A
C1217      C1222   1.403       .  A
C1217      H1224   1.085       .  S
C1219      C1226   1.507       .  S
C1219      C1220   1.403       .  A
C1220      C1221   1.408       .  A
C1220      H1225   1.082       .  S
C1222      C1223   1.508       .  S
C1223      H1227   1.111       .  S
C1223      H1229   1.110       .  S
C1226      H1230   1.110       .  S
C1226      H1232   1.111       .  S
C1233      C1234   1.409       .  A
C1233      C1238   1.405       .  A
C1233      H1240   1.084       .  S
C1235      C1242   1.507       .  S
C1235      C1236   1.405       .  A
C1236      C1237   1.405   1_554  A
C1236      H1241   1.084       .  S
C1238      C1239   1.506       .  S
C1239      H1243   1.111       .  S
C1239      H1245   1.109       .  S
C1242      H1246   1.111       .  S
C1242      H1248   1.111       .  S
C1249      C1250   1.402   1_556  A
C1249      C1254   1.404       .  A
C1249      H1256   1.084       .  S
C1251      C1258   1.508       .  S
C1251      C1252   1.406       .  A
C1252      C1253   1.398       .  A
C1252      H1257   1.080       .  S
C1254      C1255   1.507       .  S
C1255      H1259   1.110       .  S
C1255      H1260   1.110       .  S
C1258      H1263   1.110       .  S
C1258      H1264   1.111       .  S
C1265      C1266   1.409       .  A
C1265      C1270   1.408       .  A
C1265      H1272   1.084       .  S
C1267      C1274   1.507       .  S
C1267      C1268   1.404       .  A
C1268      C1269   1.404       .  A
C1268      H1273   1.084       .  S
C1270      C1271   1.507       .  S
C1271      H1275   1.111       .  S
C1271      H1276   1.110       .  S
C1274      H1279   1.109       .  S
C1274      H1280   1.111       .  S
C1281      C1282   1.398       .  A
C1281      C1286   1.406       .  A
C1281      H1288   1.084       .  S
C1283      C1290   1.506       .  S
C1283      C1284   1.404       .  A
C1284      C1285   1.402       .  A
C1284      H1289   1.084       .  S
C1286      C1287   1.508       .  S
C1287      H1291   1.111       .  S
C1287      H1293   1.110       .  S
C1290      H1294   1.109       .  S
C1290      H1296   1.111       .  S
C1297      C1302   1.406       .  A
C1297      H1304   1.084       .  S
C1298      C1299   1.417       .  A
C1299      C1306   1.507       .  S
C1299      C1300   1.405       .  A
C1300      H1305   1.084       .  S
C1301      C1302   1.413       .  A
C1302      C1303   1.507       .  S
C1303      H1307   1.111       .  S
C1303      H1309   1.104       .  S
C1306      H1310   1.109       .  S
C1306      H1312   1.111       .  S
