geometry optimzed in LAMMPS
_audit_creation_date              2020-12-01 
_audit_creation_method            'lammps2cif' 
_symmetry_space_group_name_H-M    'P1' 
_symmetry_Int_Tables_number       1 
_symmetry_cell_setting            triclinic 
loop_ 
_symmetry_equiv_pos_as_xyz 
  x,y,z 
_cell_length_a                    36.76068489 
_cell_length_b                    36.938356506902544 
_cell_length_c                    30.500051943370423 
_cell_angle_alpha                 90.78537361088472 
_cell_angle_beta                  90.24613421503352 
_cell_angle_gamma                 90.04368560576185 
loop_ 
_atom_site_label 
_atom_site_type_symbol 
_atom_site_fract_x 
_atom_site_fract_y 
_atom_site_fract_z 
_atom_site_charge 
O1          O  0.96654117  0.80019899  0.03777081    -0.72600
O2          O  0.03723803  0.87494137  0.03060615    -0.72800
O3          O  0.96441194  0.87337447  0.03580591    -0.72700
O4          O  0.03894161  0.80241197  0.03373286    -0.72700
O5          O  0.03551944  0.79761940  0.46332413    -0.72600
O6          O  0.96181861  0.87040099  0.46477033    -0.72700
O7          O  0.03483908  0.87052453  0.45982066    -0.72600
O8          O  0.96279029  0.79705397  0.46719822    -0.72800
V9          V  0.00165665  0.83777071  0.03306447     1.35200
V10         V  0.99871712  0.83402544  0.46511473     1.35200
C11         C  0.95327280  0.78568432  0.00344656     0.76600
C12         C  0.04827250  0.88461706  0.49418568     0.76700
C13         C  0.95068110  0.88495322  0.00068085     0.76600
C14         C  0.04951141  0.78678996  0.49884630     0.76500
O15         O  0.83683061  0.92563352  0.46883103    -0.72600
O16         O  0.91117553  0.99760826  0.46567153    -0.72800
O17         O  0.90992447  0.92450769  0.46639347    -0.72700
O18         O  0.83808487  0.99803450  0.46682778    -0.72700
O19         O  0.83729334  0.99944790  0.03788947    -0.72600
O20         O  0.91211454  0.92761157  0.03757001    -0.72700
O21         O  0.91101336  0.00083133  0.03684062    -0.72600
O22         O  0.83881437  0.92697899  0.03995496    -0.72800
V23         V  0.87413305  0.96150193  0.46836368     1.35200
V24         V  0.87490903  0.96374192  0.03674216     1.35200
C25         C  0.82522741  0.91382268  0.50498860     0.76600
C26         C  0.92333028  0.01187249  0.00077040     0.76700
C27         C  0.92332604  0.91295650  0.50169489     0.76600
C28         C  0.82423786  0.01090162  0.00211734     0.76500
O29         O  0.96237973  0.12482865  0.46338177    -0.72600
O30         O  0.03590386  0.05173506  0.45683844    -0.72800
O31         O  0.96287230  0.05149338  0.46286920    -0.72700
O32         O  0.03483264  0.12494956  0.45622380    -0.72700
O33         O  0.04139457  0.12423701  0.02733131    -0.72600
O34         O  0.96560051  0.05352266  0.03408392    -0.72700
O35         O  0.03862722  0.05131033  0.02770514    -0.72600
O36         O  0.96907797  0.12678406  0.03497395    -0.72800
V37         V  0.99907095  0.08817194  0.46119700     1.35200
V38         V  0.00352581  0.08882953  0.02964369     1.35200
C39         C  0.95471586  0.13949687  0.49998008     0.76600
C40         C  0.04959575  0.03924494  0.99117899     0.76700
C41         C  0.95176983  0.04019940  0.49934925     0.76600
C42         C  0.04976708  0.13771428  0.99072239     0.76500
O43         O  0.16248222  0.99618912  0.45394562    -0.72600
O44         O  0.08815834  0.92408701  0.45571129    -0.72800
O45         O  0.08883193  0.99717042  0.45480592    -0.72700
O46         O  0.16172594  0.92390140  0.45395925    -0.72700
O47         O  0.16292640  0.92498359  0.02359518    -0.72600
O48         O  0.09106404  0.99897412  0.02520135    -0.72700
O49         O  0.08996352  0.92651154  0.02624425    -0.72600
O50         O  0.16422405  0.99712800  0.02383069    -0.72800
V51         V  0.12518440  0.96037042  0.45591295     1.35200
V52         V  0.12692706  0.96190153  0.02325530     1.35200
C53         C  0.17625546  0.00775030  0.48957505     0.76600
C54         C  0.07652171  0.91351992  0.99135644     0.76700
C55         C  0.07732155  0.01035302  0.49061842     0.76600
C56         C  0.17546628  0.91257873  0.98778322     0.76500
C57         C  0.16302472  0.60354389  0.46187825     0.85700
C58         C  0.13346829  0.63316193  0.46424619    -0.54600
C59         C  0.13754704  0.65830280  0.99734794     0.08600
C60         C  0.16922431  0.64889425  0.02822904     0.19600
C61         C  0.19935956  0.62357458  0.46387544    -0.55300
C62         C  0.20243279  0.64793819  0.99715784     0.08700
C63         C  0.15995881  0.58528840  0.50658650    -0.54800
C64         C  0.16177975  0.60914392  0.04135077     0.09300
H65         H  0.11150613  0.63563596  0.44061558     0.13800
H66         H  0.17205356  0.66809861  0.05633102    -0.00500
H67         H  0.22045269  0.61928032  0.43956196     0.14100
H68         H  0.15145988  0.55791913  0.01088669     0.13900
C69         C  0.35978491  0.80138552  0.03972969     0.85700
C70         C  0.32906319  0.82996900  0.03611600    -0.54600
C71         C  0.30539231  0.82409173  0.50421838     0.08600
C72         C  0.31456182  0.79093269  0.47551297     0.19600
C73         C  0.33930549  0.76516658  0.04142419    -0.55300
C74         C  0.31476527  0.75963952  0.50908009     0.08700
C75         C  0.37792711  0.80159673  0.99485840    -0.54800
C76         C  0.35469278  0.79611310  0.46126039     0.09300
H77         H  0.32441943  0.85224304  0.05873121     0.13800
H78         H  0.29535619  0.78751674  0.44766481    -0.00500
H79         H  0.34473431  0.74567516  0.06675504     0.14100
H80         H  0.40694838  0.80618472  0.49073016     0.13900
O81         O  0.46132088  0.77351751  0.29440824    -0.72600
O82         O  0.54002158  0.77635402  0.21384120    -0.72800
O83         O  0.53409559  0.77372695  0.30144731    -0.72700
O84         O  0.46744721  0.77656298  0.20681172    -0.72700
O85         O  0.46767875  0.83528794  0.21015436    -0.72600
O86         O  0.53366597  0.83242765  0.30573604    -0.72700
O87         O  0.54044189  0.83494342  0.21792649    -0.72600
O88         O  0.46054229  0.83212080  0.29806711    -0.72800
V89         V  0.50069070  0.77621261  0.25428207     1.35200
V90         V  0.50054994  0.83259517  0.25796452     1.35200
C91         C  0.44733302  0.80215267  0.31015561     0.76600
C92         C  0.55338004  0.80605123  0.20134693     0.76700
C93         C  0.54571164  0.80257782  0.31928173     0.76600
C94         C  0.45649104  0.80643507  0.19199529     0.76500
C95         C  0.64467572  0.79369287  0.46887896     0.85700
C96         C  0.67433972  0.82307073  0.46981073    -0.54600
C97         C  0.69610983  0.82305435  0.00694292     0.08600
C98         C  0.68848849  0.79162319  0.03828568     0.19600
C99         C  0.66532986  0.75766893  0.47330572    -0.55300
C100        C  0.69139632  0.75796119  0.00753156     0.08700
C101        C  0.62517969  0.79698646  0.51282422    -0.54800
C102        C  0.64739322  0.79514099  0.05024051     0.09300
H103        H  0.67794181  0.84229710  0.44353312     0.13800
H104        H  0.70714939  0.79122262  0.06694388    -0.00500
H105        H  0.66109210  0.73395813  0.45284327     0.14100
H106        H  0.59560040  0.79752819  0.01736822     0.13900
C107        C  0.84165570  0.60079628  0.04693606     0.85700
C108        C  0.87174445  0.63029758  0.04477405    -0.54600
C109        C  0.86685374  0.65261082  0.51061018     0.08600
C110        C  0.83429925  0.64339574  0.48072232     0.19600
C111        C  0.80621895  0.62244757  0.04598438    -0.55300
C112        C  0.80181581  0.64502355  0.51291525     0.08700
C113        C  0.84369551  0.58150238  0.00259072    -0.54800
C114        C  0.83978569  0.60294217  0.46783621     0.09300
H115        H  0.89283124  0.63501386  0.06895326     0.13800
H116        H  0.83159011  0.66178161  0.45248319    -0.00500
H117        H  0.78565534  0.61996179  0.07116367     0.14100
H118        H  0.84709806  0.55177163  0.49938234     0.13900
C119        C  0.35620769  0.12638340  0.45845259     0.85700
C120        C  0.32380809  0.10029280  0.45623858    -0.54600
C121        C  0.30065669  0.10410451  0.98899591     0.08600
C122        C  0.31161604  0.13322129  0.02328361     0.19600
C123        C  0.33958304  0.16440186  0.46303468    -0.55300
C124        C  0.31571472  0.16808279  0.99603366     0.08700
C125        C  0.37320071  0.12021267  0.50389640    -0.54800
C126        C  0.35092606  0.12314510  0.03735868     0.09300
H127        H  0.32016956  0.08041177  0.42999358     0.13800
H128        H  0.29212350  0.13493450  0.05078708    -0.00500
H129        H  0.34570342  0.18592730  0.44031852     0.14100
H130        H  0.40299091  0.11526019  0.00938105     0.13900
C131        C  0.16091663  0.32181387  0.02738359     0.85700
C132        C  0.13137052  0.29203163  0.02381734    -0.54600
C133        C  0.13455987  0.27002785  0.48754340     0.08600
C134        C  0.16754877  0.27919837  0.45879105     0.19600
C135        C  0.19635016  0.29994496  0.02695531    -0.55300
C136        C  0.19985529  0.27755141  0.49145458     0.08700
C137        C  0.15971273  0.34104498  0.98361630    -0.54800
C138        C  0.16372006  0.31997079  0.44750477     0.09300
H139        H  0.11133596  0.28626870  0.04866642     0.13800
H140        H  0.16945748  0.26080638  0.42998645    -0.00500
H141        H  0.21614372  0.30226910  0.05334343     0.14100
H142        H  0.15595656  0.37102742  0.48049580     0.13900
O143        O  0.18917019  0.42410140  0.27972520    -0.72600
O144        O  0.18694192  0.50606390  0.20526405    -0.72800
O145        O  0.18946109  0.49582899  0.29254727    -0.72700
O146        O  0.18651850  0.43379766  0.19260262    -0.72700
O147        O  0.12763479  0.43261578  0.19577012    -0.72600
O148        O  0.13028942  0.49692041  0.29336320    -0.72700
O149        O  0.12797338  0.50495062  0.20610409    -0.72600
O150        O  0.13030976  0.42465516  0.28346241    -0.72800
V151        V  0.18688667  0.46495178  0.24249605     1.35200
V152        V  0.13019420  0.46477475  0.24458372     1.35200
C153        C  0.16025448  0.41084866  0.29527016     0.76600
C154        C  0.15704724  0.51946272  0.19266993     0.76700
C155        C  0.16027094  0.50675164  0.30986977     0.76600
C156        C  0.15656915  0.42211588  0.17748253     0.76500
O157        O  0.45832636  0.15266651  0.20430059    -0.72600
O158        O  0.53659174  0.15178479  0.28692909    -0.72800
O159        O  0.53096319  0.15306749  0.19874448    -0.72700
O160        O  0.46343641  0.15151448  0.29219726    -0.72700
O161        O  0.46609120  0.09270662  0.29243323    -0.72600
O162        O  0.52884578  0.09427724  0.19441603    -0.72700
O163        O  0.53857640  0.09333994  0.28198357    -0.72600
O164        O  0.45648315  0.09412348  0.20453067    -0.72800
V165        V  0.49736068  0.15114117  0.24554787     1.35200
V166        V  0.49748886  0.09472377  0.24341615     1.35200
C167        C  0.44387375  0.12366009  0.19012861     0.76600
C168        C  0.55116024  0.12234725  0.29873703     0.76700
C169        C  0.54034869  0.12393730  0.17989589     0.76600
C170        C  0.45386763  0.12183557  0.30866064     0.76500
C171        C  0.63799423  0.12279839  0.03019989     0.85700
C172        C  0.66572213  0.09165462  0.02710099    -0.54600
C173        C  0.69205354  0.09577459  0.49451960     0.08600
C174        C  0.68600887  0.12944495  0.46590967     0.19600
C175        C  0.66055494  0.15768269  0.03205301    -0.55300
C176        C  0.68785221  0.16103191  0.49985607     0.08700
C177        C  0.62053945  0.12253428  0.98437295    -0.54800
C178        C  0.64556106  0.12713186  0.45069446     0.09300
H179        H  0.66650972  0.06927292  0.04975487     0.13800
H180        H  0.70582368  0.13156195  0.43875850    -0.00500
H181        H  0.65670148  0.17810751  0.05750067     0.14100
H182        H  0.59308960  0.11947917  0.47788960     0.13900
C183        C  0.83939603  0.32145055  0.47247123     0.85700
C184        C  0.87116238  0.29447117  0.47614065    -0.54600
C185        C  0.86547154  0.26821253  0.00916599     0.08600
C186        C  0.83031202  0.27319555  0.03574289     0.19600
C187        C  0.80488407  0.29814933  0.46818492    -0.55300
C188        C  0.79989843  0.27167580  0.00034492     0.08700
C189        C  0.83688043  0.33810813  0.51888608    -0.54800
C190        C  0.83142078  0.31300585  0.05248236     0.09300
H191        H  0.89418703  0.29417476  0.45397267     0.13800
H192        H  0.82764914  0.25309822  0.06222356    -0.00500
H193        H  0.78508317  0.30216222  0.44224606     0.14100
H194        H  0.83815228  0.36587634  0.02830299     0.13900
O195        O  0.80882709  0.41993785  0.21952741    -0.72600
O196        O  0.81205046  0.50064562  0.29857046    -0.72800
O197        O  0.81072382  0.49224554  0.21095356    -0.72700
O198        O  0.81046598  0.42869760  0.30732550    -0.72700
O199        O  0.86963391  0.42730008  0.30621823    -0.72600
O200        O  0.86976754  0.49033639  0.21009709    -0.72700
O201        O  0.87099823  0.49921912  0.29752050    -0.72600
O202        O  0.86769286  0.41809704  0.21843253    -0.72800
V203        V  0.81165136  0.46028868  0.25900139     1.35200
V204        V  0.86837086  0.45873503  0.25802346     1.35200
C205        C  0.83758667  0.40519595  0.20512089     0.76600
C206        C  0.84202478  0.51360696  0.31195220     0.76700
C207        C  0.84046218  0.50257950  0.19467594     0.76600
C208        C  0.84012245  0.41792582  0.32355494     0.76500
C209        C  0.83535416  0.37497279  0.17173447    -0.06900
C210        C  0.80201937  0.36939131  0.14972728    -0.18100
C211        C  0.79892181  0.34557481  0.11375156     0.10300
C212        C  0.82965427  0.32626144  0.09876552    -0.06900
C213        C  0.86224254  0.32931604  0.12268741    -0.18100
C214        C  0.86547839  0.35317869  0.15908049     0.10300
S215        S  0.75569103  0.34351808  0.08569302    -0.33100
S216        S  0.90855772  0.35598955  0.18769991    -0.33100
H217        H  0.92555483  0.32687452  0.16576711     0.28300
H218        H  0.76053400  0.30855092  0.06820600     0.28300
H219        H  0.77835092  0.38510634  0.15908061     0.18900
H220        H  0.88594208  0.31489537  0.11085145     0.18900
C221        C  0.84046352  0.39465808  0.36163858    -0.06900
C222        C  0.84562135  0.35770672  0.35473995    -0.18100
C223        C  0.84656462  0.33379869  0.38987552     0.10300
C224        C  0.84255763  0.34732018  0.43364302    -0.06900
C225        C  0.83852295  0.38516136  0.43976472    -0.18100
C226        C  0.83729228  0.40868266  0.40440628     0.10300
S227        S  0.85252979  0.28621146  0.37716015    -0.33100
S228        S  0.83254956  0.45649767  0.41618030    -0.33100
H229        H  0.80946254  0.46386858  0.38063855     0.28300
H230        H  0.85586788  0.28892317  0.33140868     0.28300
H231        H  0.84855811  0.34764511  0.32143695     0.18900
H232        H  0.83495276  0.39736532  0.47150237     0.18900
C233        C  0.77022131  0.24372018  0.99901636    -0.06900
C234        C  0.75683500  0.23101164  0.03883322    -0.18100
C235        C  0.73106006  0.20322985  0.04034180     0.10300
C236        C  0.71671006  0.18971303  0.50047343    -0.06900
C237        C  0.72917778  0.20303616  0.46050689    -0.18100
C238        C  0.75747334  0.22837521  0.45881007     0.10300
S239        S  0.72406379  0.18408465  0.09351111    -0.33100
S240        S  0.77679007  0.23526641  0.40558910    -0.33100
H241        H  0.81251775  0.23091547  0.42136602     0.28300
H242        H  0.72632685  0.14852752  0.07710755     0.28300
H243        H  0.76754828  0.24169762  0.06948201     0.18900
H244        H  0.71789651  0.19254892  0.43003380     0.18900
C245        C  0.58107649  0.12230002  0.33268730    -0.06900
C246        C  0.59524616  0.15574226  0.34787624    -0.18100
C247        C  0.61936436  0.15807729  0.38380130     0.10300
C248        C  0.63089057  0.12625470  0.40496724    -0.06900
C249        C  0.61879490  0.09278839  0.38809024    -0.18100
C250        C  0.59440609  0.09033629  0.35259579     0.10300
S251        S  0.63293821  0.20270758  0.40225747    -0.33100
S252        S  0.58005116  0.04542528  0.33663129    -0.33100
H253        H  0.54337395  0.05200401  0.34687385     0.28300
H254        H  0.63294535  0.19562342  0.44733032     0.28300
H255        H  0.58614306  0.18064944  0.33304675     0.18900
H256        H  0.62605812  0.06824314  0.40499098     0.18900
C257        C  0.56434577  0.12436205  0.14196160    -0.06900
C258        C  0.60088581  0.11586759  0.14823523    -0.18100
C259        C  0.62528124  0.11522259  0.11312125     0.10300
C260        C  0.61225368  0.12123555  0.06963362    -0.06900
C261        C  0.57519241  0.13052162  0.06437700    -0.18100
C262        C  0.55138941  0.13222799  0.09980535     0.10300
S263        S  0.67283464  0.10807213  0.12583934    -0.33100
S264        S  0.50452505  0.14369547  0.08881354    -0.33100
H265        H  0.49951147  0.16506988  0.12669609     0.28300
H266        H  0.66974740  0.10558163  0.17163602     0.28300
H267        H  0.61033858  0.11036396  0.18116713     0.18900
H268        H  0.56426677  0.13839142  0.03309446     0.18900
C269        C  0.16644577  0.33638142  0.40343926    -0.06900
C270        C  0.13497378  0.33736935  0.37745357    -0.18100
C271        C  0.13235733  0.35989175  0.34092477     0.10300
C272        C  0.16220815  0.38199077  0.32911222    -0.06900
C273        C  0.19438553  0.37943038  0.35388936    -0.18100
C274        C  0.19660571  0.35797879  0.39128040     0.10300
S275        S  0.08983465  0.35959066  0.31171066    -0.33100
S276        S  0.23799178  0.36261283  0.42311324    -0.33100
H277        H  0.23143694  0.33631636  0.45454483     0.28300
H278        H  0.10732498  0.35768273  0.27114213     0.28300
H279        H  0.11135664  0.32209444  0.38711111     0.18900
H280        H  0.21746080  0.39637612  0.34598632     0.18900
C281        C  0.15903569  0.34889334  0.06582289    -0.06900
C282        C  0.12813206  0.35052270  0.09287894    -0.18100
C283        C  0.12638050  0.37383938  0.12916449     0.10300
C284        C  0.15590525  0.39712398  0.13908070    -0.06900
C285        C  0.18594319  0.39710449  0.11101531    -0.18100
C286        C  0.18769818  0.37403638  0.07431995     0.10300
S287        S  0.08606532  0.37113251  0.16214233    -0.33100
S288        S  0.22668804  0.37807597  0.03861272    -0.33100
H289        H  0.24492722  0.40590723  0.06169164     0.28300
H290        H  0.10653293  0.36720443  0.20052548     0.28300
H291        H  0.10455209  0.33400341  0.08626545     0.18900
H292        H  0.20809052  0.41574204  0.11761512     0.18900
C293        C  0.23015786  0.25032233  0.49059042    -0.06900
C294        C  0.24313873  0.23601893  0.03144008    -0.18100
C295        C  0.27226442  0.21195940  0.03442145     0.10300
C296        C  0.28874659  0.19841423  0.99598464    -0.06900
C297        C  0.27486581  0.21129621  0.45504391    -0.18100
C298        C  0.24713265  0.23705802  0.45190583     0.10300
S299        S  0.28830545  0.20143723  0.08840325    -0.33100
S300        S  0.23594845  0.25102735  0.39713384    -0.33100
H301        H  0.22921665  0.28696774  0.40876651     0.28300
H302        H  0.32006034  0.22197825  0.08237534     0.28300
H303        H  0.23005922  0.24418639  0.06170543     0.18900
H304        H  0.28594289  0.20034139  0.42486116     0.18900
C305        C  0.36572052  0.12201812  0.08283010    -0.06900
C306        C  0.37472088  0.15482448  0.10361757    -0.18100
C307        C  0.39810835  0.15630482  0.14024282     0.10300
C308        C  0.41420542  0.12394040  0.15599348    -0.06900
C309        C  0.40347380  0.09082041  0.13627357    -0.18100
C310        C  0.37960642  0.08960925  0.10002193     0.10300
S311        S  0.40782631  0.20019026  0.16456695    -0.33100
S312        S  0.36856826  0.04679248  0.07385771    -0.33100
H313        H  0.38846083  0.02482155  0.10262770     0.28300
H314        H  0.38085061  0.21967534  0.14208866     0.28300
H315        H  0.36566197  0.17966901  0.08893576     0.18900
H316        H  0.41504939  0.06581959  0.14801370     0.18900
C317        C  0.38103548  0.12252501  0.41831408    -0.06900
C318        C  0.41684507  0.10916607  0.42252222    -0.18100
C319        C  0.44098141  0.10891148  0.38739797     0.10300
C320        C  0.42935008  0.12127863  0.34632571    -0.06900
C321        C  0.39334465  0.13236252  0.34065128    -0.18100
C322        C  0.36873894  0.13216251  0.37565815     0.10300
S323        S  0.48674395  0.09348999  0.39744331    -0.33100
S324        S  0.32176821  0.14379276  0.36459875    -0.33100
H325        H  0.32398878  0.14308561  0.31855932     0.28300
H326        H  0.50335912  0.12005172  0.37177000     0.28300
H327        H  0.42692883  0.09854242  0.45290213     0.18900
H328        H  0.38446812  0.14082843  0.30846430     0.18900
C329        C  0.84341249  0.54294769  0.34616476    -0.06900
C330        C  0.87413130  0.54462028  0.37362400    -0.18100
C331        C  0.87489395  0.56660467  0.41133265     0.10300
C332        C  0.84411124  0.58774822  0.42267880    -0.06900
C333        C  0.81448984  0.58847544  0.39359437    -0.18100
C334        C  0.81393322  0.56667511  0.35536010     0.10300
S335        S  0.91543650  0.56464003  0.44487837    -0.33100
S336        S  0.77466086  0.57017540  0.32015921    -0.33100
H337        H  0.79445930  0.56607157  0.28100545     0.28300
H338        H  0.91143124  0.59891083  0.46469187     0.28300
H339        H  0.89722670  0.52720436  0.36702647     0.18900
H340        H  0.79089522  0.60475383  0.40177002     0.18900
C341        C  0.84209554  0.57439696  0.08514912    -0.06900
C342        C  0.86938803  0.57636128  0.11770371    -0.18100
C343        C  0.86873071  0.55425596  0.15428628     0.10300
C344        C  0.84106339  0.52813962  0.15830508    -0.06900
C345        C  0.81399174  0.52545002  0.12613598    -0.18100
C346        C  0.81413139  0.54793299  0.08959992     0.10300
S347        S  0.90296723  0.56232331  0.19589797    -0.33100
S348        S  0.77800909  0.54220895  0.04940052    -0.33100
H349        H  0.76325446  0.50811198  0.56623909     0.28300
H350        H  0.87894101  0.55836674  0.23132861     0.28300
H351        H  0.89140842  0.59542827  0.11620738     0.18900
H352        H  0.79286752  0.50524386  0.12948121     0.18900
C353        C  0.72147743  0.73071096  0.00837726    -0.06900
C354        C  0.73490306  0.71929337  0.04885511    -0.18100
C355        C  0.76272451  0.69354493  0.05154528     0.10300
C356        C  0.77355983  0.67403340  0.51246670    -0.06900
C357        C  0.76004248  0.68500833  0.47188285    -0.18100
C358        C  0.73494718  0.71322657  0.46862711     0.10300
S359        S  0.78206326  0.68755035  0.10543644    -0.33100
S360        S  0.72718235  0.72951608  0.41381528    -0.33100
H361        H  0.72582971  0.76617769  0.42639066     0.28300
H362        H  0.81801963  0.68468633  0.09049560     0.28300
H363        H  0.72437861  0.73117310  0.07883734     0.18900
H364        H  0.77001372  0.67231355  0.44205273     0.18900
C365        C  0.63122256  0.79986853  0.09476845    -0.06900
C366        C  0.61271444  0.83240475  0.10369863    -0.18100
C367        C  0.58847691  0.83589902  0.13891623     0.10300
C368        C  0.58250175  0.80624842  0.16704734    -0.06900
C369        C  0.60306203  0.77449398  0.15979838    -0.18100
C370        C  0.62678998  0.77084674  0.12391661     0.10300
S371        S  0.56375733  0.87785848  0.14319826    -0.33100
S372        S  0.64864589  0.72768741  0.11564493    -0.33100
H373        H  0.64392011  0.72645729  0.06993687     0.28300
H374        H  0.52947909  0.86084403  0.14224037     0.28300
H375        H  0.61513594  0.85458712  0.08099766     0.18900
H376        H  0.59936473  0.75154810  0.18108118     0.18900
C377        C  0.57267640  0.80139712  0.35510509    -0.06900
C378        C  0.57219644  0.82845699  0.38778406    -0.18100
C379        C  0.59586051  0.82721480  0.42397917     0.10300
C380        C  0.61974723  0.79724059  0.42872169    -0.06900
C381        C  0.62177059  0.77189967  0.39373142    -0.18100
C382        C  0.59894869  0.77378107  0.35733035     0.10300
S383        S  0.59579820  0.86478756  0.46278172    -0.33100
S384        S  0.60654546  0.74126721  0.31357879    -0.33100
H385        H  0.60189964  0.76641166  0.27974458     0.28300
H386        H  0.56718852  0.88446787  0.44379174     0.28300
H387        H  0.55297718  0.85050094  0.38505175     0.18900
H388        H  0.64225579  0.75116530  0.39259085     0.18900
C389        C  0.41765356  0.79979202  0.34362062    -0.06900
C390        C  0.41396596  0.76721305  0.36658123    -0.18100
C391        C  0.39021438  0.76409474  0.40208058     0.10300
C392        C  0.36928337  0.79413944  0.41585134    -0.06900
C393        C  0.37067357  0.82590783  0.39117664    -0.18100
C394        C  0.39427753  0.82900442  0.35496845     0.10300
S395        S  0.38995443  0.72177520  0.43075870    -0.33100
S396        S  0.39435524  0.87046394  0.32424829    -0.33100
H397        H  0.36527899  0.88729985  0.34634521     0.28300
H398        H  0.35351588  0.72424414  0.44377445     0.28300
H399        H  0.43094505  0.74420387  0.35814351     0.18900
H400        H  0.35483228  0.84904501  0.40198777     0.18900
C401        C  0.38716640  0.80494174  0.07766503    -0.06900
C402        C  0.38526171  0.83391997  0.10823247    -0.18100
C403        C  0.40689654  0.83497249  0.14597521     0.10300
C404        C  0.43231894  0.80713866  0.15333560    -0.06900
C405        C  0.43587276  0.77927677  0.12212415    -0.18100
C406        C  0.41417628  0.77791752  0.08439193     0.10300
S407        S  0.39901815  0.87153073  0.18456014    -0.33100
S408        S  0.42138048  0.74080645  0.04590966    -0.33100
H409        H  0.45268625  0.72622890  0.06556995     0.28300
H410        H  0.39986909  0.84920825  0.22156952     0.28300
H411        H  0.36647318  0.85594851  0.10423974     0.18900
H412        H  0.45600988  0.75837975  0.12735333     0.18900
C413        C  0.28800361  0.72882235  0.50795754    -0.06900
C414        C  0.27470817  0.71774703  0.46677486    -0.18100
C415        C  0.24607338  0.69302353  0.46231584     0.10300
C416        C  0.23284974  0.67470298  0.99938553    -0.06900
C417        C  0.24657079  0.68480879  0.04058625    -0.18100
C418        C  0.27293113  0.71212618  0.04553192     0.10300
S419        S  0.22487243  0.68817744  0.40893161    -0.33100
S420        S  0.28315154  0.72715229  0.10099778    -0.33100
H421        H  0.26591830  0.69885239  0.12328762     0.28300
H422        H  0.24574530  0.71397304  0.38668753     0.28300
H423        H  0.28597897  0.72938374  0.43753236     0.18900
H424        H  0.23547780  0.67205021  0.06931679     0.18900
C425        C  0.15597708  0.59529706  0.08645156    -0.06900
C426        C  0.18496885  0.59619047  0.11650835    -0.18100
C427        C  0.18492553  0.57407863  0.15376535     0.10300
C428        C  0.15572959  0.54964637  0.16058533    -0.06900
C429        C  0.12523108  0.55178711  0.13291836    -0.18100
C430        C  0.12483058  0.57434830  0.09647536     0.10300
S431        S  0.22289664  0.57819103  0.19102636    -0.33100
S432        S  0.08433671  0.57304497  0.06265057    -0.33100
H433        H  0.09031385  0.60569346  0.04089335     0.28300
H434        H  0.20218210  0.57194813  0.22890516     0.28300
H435        H  0.20864627  0.61264934  0.10970844     0.18900
H436        H  0.10207254  0.53423327  0.13820767     0.18900
C437        C  0.16122300  0.57844242  0.42148296    -0.06900
C438        C  0.17027147  0.54146815  0.42585746    -0.18100
C439        C  0.16969388  0.51754513  0.39016441     0.10300
C440        C  0.16098325  0.53053094  0.34842189    -0.06900
C441        C  0.15405542  0.56727150  0.34276562    -0.18100
C442        C  0.15530518  0.59166923  0.37830077     0.10300
S443        S  0.18065972  0.47075638  0.39985722    -0.33100
S444        S  0.15133636  0.63938332  0.36648059    -0.33100
H445        H  0.15184197  0.63649390  0.32045893     0.28300
H446        H  0.15407895  0.45685795  0.37099386     0.28300
H447        H  0.17903168  0.53065190  0.45681151     0.18900
H448        H  0.14856393  0.57689480  0.31000982     0.18900
C449        C  0.20648353  0.88648376  0.98811614    -0.06900
C450        C  0.21467105  0.86953543  0.02787314    -0.18100
C451        C  0.24574783  0.84825800  0.03290423     0.10300
C452        C  0.27071281  0.84459359  0.49980238    -0.06900
C453        C  0.26209190  0.86012371  0.45940594    -0.18100
C454        C  0.23035281  0.88074389  0.45387424     0.10300
S455        S  0.25159855  0.82665911  0.08501319    -0.33100
S456        S  0.22338483  0.90042369  0.40086137    -0.33100
H457        H  0.18904807  0.88412781  0.39513409     0.28300
H458        H  0.26519821  0.79469517  0.06626446     0.28300
H459        H  0.19671813  0.87298202  0.05570786     0.18900
H460        H  0.28061462  0.85672123  0.43210616     0.18900
C461        C  0.20756194  0.03233982  0.49007761    -0.06900
C462        C  0.20256769  0.06972993  0.98999290    -0.18100
C463        C  0.23195511  0.09401712  0.99145888     0.10300
C464        C  0.26800453  0.08048549  0.99147191    -0.06900
C465        C  0.27261525  0.04309142  0.49175176    -0.18100
C466        C  0.24342462  0.01895852  0.49117543     0.10300
S467        S  0.22256181  0.14177776  0.99124821    -0.33100
S468        S  0.25362084  0.97135395  0.49161645    -0.33100
H469        H  0.22797045  0.96352164  0.52416038     0.28300
H470        H  0.18510382  0.13934598  0.98211049     0.28300
H471        H  0.17489181  0.07976648  0.99005303     0.18900
H472        H  0.30010670  0.03248241  0.49183091     0.18900
C473        C  0.93126845  0.17178429  0.50302165    -0.06900
C474        C  0.94733854  0.20508808  0.01077594    -0.18100
C475        C  0.92689319  0.23696008  0.01451370     0.10300
C476        C  0.88855939  0.23525453  0.01135523    -0.06900
C477        C  0.87266822  0.20212635  0.50269777    -0.18100
C478        C  0.89301648  0.17006931  0.49980064     0.10300
S479        S  0.95138999  0.27870338  0.02400089    -0.33100
S480        S  0.86865240  0.12804417  0.49186958    -0.33100
H481        H  0.89388282  0.10597092  0.51361685     0.28300
H482        H  0.92328741  0.29668409  0.04650127     0.28300
H483        H  0.97676415  0.20665306  0.01279855     0.18900
H484        H  0.84336629  0.20071266  0.49897430     0.18900
C485        C  0.11496191  0.23452763  0.98570418    -0.06900
C486        C  0.12538125  0.20633176  0.01359958    -0.18100
C487        C  0.10584899  0.17366463  0.01464279     0.10300
C488        C  0.07485247  0.16905932  0.98754576    -0.06900
C489        C  0.06724534  0.19557825  0.45592203    -0.18100
C490        C  0.08623511  0.22844980  0.45502829     0.10300
S491        S  0.12230994  0.13867937  0.05024795    -0.33100
S492        S  0.07135949  0.26174974  0.41642577    -0.33100
H493        H  0.07689945  0.29164003  0.44471864     0.28300
H494        H  0.11202596  0.10972963  0.02237427     0.28300
H495        H  0.14885133  0.20990310  0.03487868     0.18900
H496        H  0.04445156  0.19167990  0.43368731     0.18900
C497        C  0.79485819  0.88718798  0.50668422    -0.06900
C498        C  0.77221308  0.88709187  0.04453689    -0.18100
C499        C  0.74020972  0.86633674  0.04574206     0.10300
C500        C  0.72968864  0.84564581  0.00855874    -0.06900
C501        C  0.75540733  0.84191244  0.47244738    -0.18100
C502        C  0.78736805  0.86251683  0.47192791     0.10300
S503        S  0.71273994  0.86940662  0.09438817    -0.33100
S504        S  0.81790733  0.85503382  0.42662010    -0.29900
H505        H  0.84976285  0.85814840  0.45218191     0.28300
H506        H  0.67951655  0.86918729  0.07147931     0.28300
H507        H  0.77913730  0.90388083  0.07276927     0.18900
H508        H  0.74981503  0.82359986  0.44524169     0.18900
C509        C  0.79238838  0.03586687  0.00042566    -0.06900
C510        C  0.77394807  0.03853307  0.46045696    -0.18100
C511        C  0.74108977  0.05756775  0.45754994     0.10300
C512        C  0.72659138  0.07458800  0.49519005    -0.06900
C513        C  0.74576894  0.07333412  0.03472045    -0.18100
C514        C  0.77909368  0.05512258  0.03743153     0.10300
S515        S  0.71756215  0.05676929  0.40574609    -0.33100
S516        S  0.80357368  0.05877702  0.08859994    -0.33100
H517        H  0.83762116  0.06381621  0.06862050     0.28300
H518        H  0.68354603  0.05072926  0.42502924     0.28300
H519        H  0.78370551  0.02453054  0.43137709     0.18900
H520        H  0.73575454  0.08736126  0.06356292     0.18900
C521        C  0.88836823  0.68673822  0.50749521    -0.06900
C522        C  0.89244414  0.70956857  0.04452757    -0.18100
C523        C  0.91158105  0.74241977  0.04422750     0.10300
C524        C  0.92914762  0.75329927  0.00534448    -0.06900
C525        C  0.92477272  0.73038699  0.46787016    -0.18100
C526        C  0.90489745  0.69786263  0.46827180     0.10300
S527        S  0.91199122  0.77031915  0.09344898    -0.33100
S528        S  0.90302088  0.66979491  0.41931962    -0.33100
H529        H  0.92208227  0.69330517  0.39172667     0.28300
H530        H  0.89359685  0.74608697  0.12079480     0.28300
H531        H  0.87899885  0.70134595  0.07423646     0.18900
H532        H  0.93826961  0.73820330  0.43799376     0.18900
C533        C  0.07580863  0.75630814  0.49984798    -0.06900
C534        C  0.07643410  0.73538181  0.03615999    -0.18100
C535        C  0.09700909  0.70341002  0.03710653     0.10300
C536        C  0.11696604  0.69284486  0.99974047    -0.06900
C537        C  0.11816040  0.71472119  0.46464017    -0.18100
C538        C  0.09863870  0.74724837  0.46419170     0.10300
S539        S  0.09576484  0.67544525  0.08516225    -0.33100
S540        S  0.10532358  0.77657543  0.41817229    -0.33100
H541        H  0.10323634  0.80887807  0.44307156     0.28300
H542        H  0.07480591  0.69893988  0.11147411     0.28300
H543        H  0.05957822  0.74240251  0.06401078     0.18900
H544        H  0.13507657  0.70764361  0.43679235     0.18900
O545        O  0.96646491  0.79909780  0.53807778    -0.72600
O546        O  0.03719397  0.87383738  0.53099058    -0.72800
O547        O  0.96442765  0.87232563  0.53594249    -0.72700
O548        O  0.03888208  0.80127553  0.53428276    -0.72700
O549        O  0.03544536  0.79890851  0.96277707    -0.72600
O550        O  0.96160937  0.87148045  0.96463684    -0.72700
O551        O  0.03463490  0.87174535  0.95943646    -0.72600
O552        O  0.96277956  0.79825937  0.96687805    -0.72800
V553        V  0.00162085  0.83665717  0.53339710     1.35200
V554        V  0.99859686  0.83523669  0.96477961     1.35200
C555        C  0.95317552  0.78454713  0.50378300     0.76600
C556        C  0.04825532  0.88569544  0.99376102     0.76700
C557        C  0.95089970  0.88400945  0.50075693     0.76600
C558        C  0.04952922  0.78802565  0.99821572     0.76500
O559        O  0.83613372  0.92648833  0.96894054    -0.72600
O560        O  0.91080038  0.99794544  0.96565079    -0.72800
O561        O  0.90924945  0.92498778  0.96642863    -0.72700
O562        O  0.83768514  0.99872473  0.96686237    -0.72700
O563        O  0.83788028  0.99897706  0.53784498    -0.72600
O564        O  0.91253179  0.92694443  0.53755029    -0.72700
O565        O  0.91155119  0.00031746  0.53685593    -0.72600
O566        O  0.83922401  0.92648304  0.53989930    -0.72800
V567        V  0.87359555  0.96208397  0.96840212     1.35200
V568        V  0.87541013  0.96318984  0.53670653     1.35200
C569        C  0.82461308  0.91454598  0.00505063     0.76600
C570        C  0.92367529  0.01159857  0.50079064     0.76700
C571        C  0.92286851  0.91363080  0.00170265     0.76600
C572        C  0.82479400  0.01040729  0.50208242     0.76500
O573        O  0.96186695  0.12485303  0.96419530    -0.72600
O574        O  0.03577846  0.05210550  0.95655604    -0.72800
O575        O  0.96267408  0.05158136  0.96292732    -0.72700
O576        O  0.03427403  0.12531027  0.95664957    -0.72700
O577        O  0.04170671  0.12432102  0.52693220    -0.72600
O578        O  0.96553772  0.05388529  0.53401674    -0.72700
O579        O  0.03851306  0.05134733  0.52801593    -0.72600
O580        O  0.96940863  0.12727405  0.53417058    -0.72800
V581        V  0.99873260  0.08836034  0.96144082     1.35200
V582        V  0.00363747  0.08907553  0.52941429     1.35200
C583        C  0.95417406  0.13915787  0.00100094     0.76600
C584        C  0.04944830  0.03894653  0.49163704     0.76700
C585        C  0.95163892  0.04016360  0.99936864     0.76600
C586        C  0.05028491  0.13754673  0.49024016     0.76500
O587        O  0.16299965  0.99638951  0.95252176    -0.72600
O588        O  0.08818144  0.92483597  0.95499934    -0.72800
O589        O  0.08924394  0.99783961  0.95396986    -0.72700
O590        O  0.16173003  0.92410945  0.95259503    -0.72700
O591        O  0.16238857  0.92461698  0.52496507    -0.72600
O592        O  0.09036939  0.99840417  0.52605064    -0.72700
O593        O  0.08942102  0.92586353  0.52696383    -0.72600
O594        O  0.16345414  0.99676602  0.52526031    -0.72800
V595        V  0.12544279  0.96083920  0.95483059     1.35200
V596        V  0.12628383  0.96140217  0.52434719     1.35200
C597        C  0.17699273  0.00792528  0.98804321     0.76600
C598        C  0.07633994  0.91269599  0.49196143     0.76700
C599        C  0.07777749  0.01090054  0.98987391     0.76600
C600        C  0.17527891  0.91239009  0.48925966     0.76500
C601        C  0.16225827  0.60402493  0.96150844     0.85700
C602        C  0.13328724  0.63424577  0.96324606    -0.54600
C603        C  0.13755610  0.65712583  0.49845812     0.08600
C604        C  0.16960232  0.64814873  0.52894994     0.19600
C605        C  0.19898181  0.62330705  0.96374733    -0.55300
C606        C  0.20259557  0.64802655  0.49753916     0.08700
C607        C  0.15842195  0.58612323  0.00633388    -0.54800
C608        C  0.16302201  0.60818330  0.54177455     0.09300
H609        H  0.11149216  0.63691669  0.93942370     0.13800
H610        H  0.17222236  0.66724222  0.55719849    -0.00500
H611        H  0.22019067  0.61838880  0.93974669     0.14100
H612        H  0.15348954  0.55694946  0.51096609     0.13900
C613        C  0.36025505  0.80117988  0.54046426     0.85700
C614        C  0.32946804  0.82983502  0.53786948    -0.54600
C615        C  0.30525026  0.82376138  0.00233540     0.08600
C616        C  0.31471154  0.79022852  0.97433772     0.19600
C617        C  0.33975013  0.76494795  0.54174097    -0.55300
C618        C  0.31467679  0.75936953  0.00849938     0.08700
C619        C  0.37796239  0.80198689  0.49537369    -0.54800
C620        C  0.35500999  0.79517673  0.96052380     0.09300
H621        H  0.32502609  0.85178005  0.56095685     0.13800
H622        H  0.29574469  0.78642177  0.94631773    -0.00500
H623        H  0.34534620  0.74512626  0.56663622     0.14100
H624        H  0.40695926  0.80574060  0.99054919     0.13900
O625        O  0.46284465  0.77138591  0.79439757    -0.72600
O626        O  0.54151364  0.77485360  0.71365903    -0.72800
O627        O  0.53569121  0.77196312  0.80141201    -0.72700
O628        O  0.46893055  0.77470938  0.70664164    -0.72700
O629        O  0.46918524  0.83342553  0.71010776    -0.72600
O630        O  0.53453051  0.83065435  0.80616444    -0.72700
O631        O  0.54176551  0.83343604  0.71835605    -0.72600
O632        O  0.46155576  0.82999640  0.79788676    -0.72800
V633        V  0.50221788  0.77437717  0.75419817     1.35200
V634        V  0.50175747  0.83075561  0.75812032     1.35200
C635        C  0.44857031  0.79994718  0.81000319     0.76600
C636        C  0.55462689  0.80470293  0.70130146     0.76700
C637        C  0.54675663  0.80087516  0.81965960     0.76600
C638        C  0.45800447  0.80462089  0.69185916     0.76500
C639        C  0.64449940  0.79329400  0.97050997     0.85700
C640        C  0.67304485  0.82372270  0.97174838    -0.54600
C641        C  0.69713106  0.82191853  0.50519260     0.08600
C642        C  0.68843063  0.79095181  0.53679414     0.19600
C643        C  0.66645483  0.75801342  0.97446768    -0.55300
C644        C  0.69030074  0.75702947  0.50631640     0.08700
C645        C  0.62498850  0.79557673  0.01451332    -0.54800
C646        C  0.64743920  0.79577432  0.54866436     0.09300
H647        H  0.67590810  0.84315827  0.94556141     0.13800
H648        H  0.70701010  0.79029154  0.56552004    -0.00500
H649        H  0.66317519  0.73441078  0.95352450     0.14100
H650        H  0.59585350  0.79982622  0.51552647     0.13900
C651        C  0.84050181  0.59989989  0.54731947     0.85700
C652        C  0.87021504  0.62980729  0.54540566    -0.54600
C653        C  0.86849273  0.65304691  0.00992927     0.08600
C654        C  0.83577002  0.64416260  0.98021195     0.19600
C655        C  0.80480800  0.62116177  0.54633072    -0.55300
C656        C  0.80343997  0.64639359  0.01266714     0.08700
C657        C  0.84281862  0.58078173  0.50289077    -0.54800
C658        C  0.84075689  0.60356375  0.96743824     0.09300
H659        H  0.89114244  0.63469383  0.56974260     0.13800
H660        H  0.83331708  0.66248795  0.95188992    -0.00500
H661        H  0.78423568  0.61851996  0.57148655     0.14100
H662        H  0.84772966  0.55244934  0.99920222     0.13900
C663        C  0.35724276  0.12652058  0.95794107     0.85700
C664        C  0.32476882  0.10053515  0.95537762    -0.54600
C665        C  0.29959511  0.10422989  0.48971833     0.08600
C666        C  0.31038857  0.13374081  0.52355090     0.19600
C667        C  0.34082521  0.16453571  0.96327882    -0.55300
C668        C  0.31444578  0.16826614  0.49574690     0.08700
C669        C  0.37436152  0.11974299  0.00316372    -0.54800
C670        C  0.34968291  0.12405385  0.53794675     0.09300
H671        H  0.32102638  0.08096910  0.92880859     0.13800
H672        H  0.29082277  0.13572886  0.55095647    -0.00500
H673        H  0.34696082  0.18629804  0.94089940     0.14100
H674        H  0.40188153  0.11633065  0.51034927     0.13900
C675        C  0.15998686  0.32251865  0.52686447     0.85700
C676        C  0.13051894  0.29266796  0.52291586    -0.54600
C677        C  0.13514167  0.26934405  0.98844582     0.08600
C678        C  0.16802574  0.27832170  0.95940917     0.19600
C679        C  0.19551503  0.30075965  0.52655633    -0.55300
C680        C  0.20050722  0.27671584  0.99187034     0.08700
C681        C  0.15897350  0.34186181  0.48311031    -0.54800
C682        C  0.16410604  0.31907321  0.94804437     0.09300
H683        H  0.11034501  0.28674697  0.54750951     0.13800
H684        H  0.16985991  0.25984819  0.93064709    -0.00500
H685        H  0.21522772  0.30317511  0.55302096     0.14100
H686        H  0.15670837  0.37021195  0.98094549     0.13900
O687        O  0.18825518  0.42333206  0.78063585    -0.72600
O688        O  0.18692206  0.50523966  0.70622434    -0.72800
O689        O  0.18905145  0.49503135  0.79347927    -0.72700
O690        O  0.18599369  0.43301902  0.69354191    -0.72700
O691        O  0.12708144  0.43202019  0.69662760    -0.72600
O692        O  0.12988512  0.49666724  0.79387780    -0.72700
O693        O  0.12793618  0.50439471  0.70660619    -0.72600
O694        O  0.12941257  0.42439994  0.78442920    -0.72800
V695        V  0.18641666  0.46415513  0.74344166     1.35200
V696        V  0.12971435  0.46435103  0.74529457     1.35200
C697        C  0.15923931  0.41037505  0.79626521     0.76600
C698        C  0.15716207  0.51872803  0.69335328     0.76700
C699        C  0.15987744  0.50628385  0.81052501     0.76600
C700        C  0.15601871  0.42146834  0.67836566     0.76500
O701        O  0.45896450  0.15501044  0.70384738    -0.72600
O702        O  0.53709322  0.15233522  0.78628908    -0.72800
O703        O  0.53168121  0.15447779  0.69823094    -0.72700
O704        O  0.46401842  0.15294589  0.79155263    -0.72700
O705        O  0.46600368  0.09410057  0.79102441    -0.72600
O706        O  0.52864295  0.09577459  0.69293713    -0.72700
O707        O  0.53844690  0.09391366  0.78043108    -0.72600
O708        O  0.45611685  0.09651180  0.70323130    -0.72800
V709        V  0.49794974  0.15256881  0.74493273     1.35200
V710        V  0.49730274  0.09617394  0.74197219     1.35200
C711        C  0.44398800  0.12641331  0.68930761     0.76600
C712        C  0.55129943  0.12262658  0.79766793     0.76700
C713        C  0.54078495  0.12539851  0.67904662     0.76600
C714        C  0.45417412  0.12322635  0.80766828     0.76500
C715        C  0.63935187  0.12374522  0.53014004     0.85700
C716        C  0.66672756  0.09228182  0.52688294    -0.54600
C717        C  0.69105092  0.09539712  0.99483057     0.08600
C718        C  0.68477217  0.12897713  0.96617389     0.19600
C719        C  0.66233199  0.15833859  0.53198280    -0.55300
C720        C  0.68618700  0.16063596  0.00009600     0.08700
C721        C  0.62178744  0.12370806  0.48439550    -0.54800
C722        C  0.64439999  0.12615910  0.95077272     0.09300
H723        H  0.66732487  0.06988496  0.54951545     0.13800
H724        H  0.70465287  0.13121440  0.93910114    -0.00500
H725        H  0.65885321  0.17876204  0.55751977     0.14100
H726        H  0.59190107  0.11810462  0.97770404     0.13900
C727        C  0.83845135  0.32074779  0.97364365     0.85700
C728        C  0.87004954  0.29359369  0.97749691    -0.54600
C729        C  0.86673334  0.26900677  0.50772079     0.08600
C730        C  0.83169176  0.27381951  0.53452478     0.19600
C731        C  0.80382808  0.29761830  0.96925210    -0.55300
C732        C  0.80119261  0.27219598  0.49930075     0.08700
C733        C  0.83581578  0.33746070  0.02001134    -0.54800
C734        C  0.83261981  0.31360088  0.55133742     0.09300
H735        H  0.89312375  0.29319325  0.95540492     0.13800
H736        H  0.82923364  0.25366139  0.56096502    -0.00500
H737        H  0.78411428  0.30175687  0.94325196     0.14100
H738        H  0.83913797  0.36650579  0.52720255     0.13900
O739        O  0.80854528  0.41915214  0.71993188    -0.72600
O740        O  0.81209124  0.49973257  0.79926688    -0.72800
O741        O  0.81078676  0.49141322  0.71156851    -0.72700
O742        O  0.81014821  0.42771450  0.80787424    -0.72700
O743        O  0.86931689  0.42636962  0.80712726    -0.72600
O744        O  0.86979625  0.48895960  0.71043834    -0.72700
O745        O  0.87102062  0.49830113  0.79792133    -0.72600
O746        O  0.86741258  0.41678406  0.71927426    -0.72800
V747        V  0.81153042  0.45940129  0.75959060     1.35200
V748        V  0.86823596  0.45760027  0.75866685     1.35200
C749        C  0.83725067  0.40423686  0.70561639     0.76600
C750        C  0.84210465  0.51277361  0.81243621     0.76700
C751        C  0.84055415  0.50137556  0.69501559     0.76600
C752        C  0.83974255  0.41697093  0.82431757     0.76500
C753        C  0.83494935  0.37441394  0.67170521    -0.06900
C754        C  0.80232067  0.37059137  0.64773868    -0.18100
C755        C  0.79957924  0.34725611  0.61127040     0.10300
C756        C  0.83000516  0.32681410  0.59760000    -0.06900
C757        C  0.86173449  0.32815232  0.62334217    -0.18100
C758        C  0.86452563  0.35141777  0.66038806     0.10300
S759        S  0.75732164  0.34702965  0.58103479    -0.33100
S760        S  0.90623471  0.35174242  0.69194977    -0.33100
H761        H  0.92342849  0.32307062  0.66939175     0.28300
H762        H  0.76103982  0.31159850  0.56442200     0.28300
H763        H  0.77905060  0.38727597  0.65602352     0.18900
H764        H  0.88517862  0.31274358  0.61263294     0.18900
C765        C  0.83994682  0.39375465  0.86252234    -0.06900
C766        C  0.84437398  0.35669322  0.85573280    -0.18100
C767        C  0.84533281  0.33288326  0.89097112     0.10300
C768        C  0.84196074  0.34655031  0.93475250    -0.06900
C769        C  0.83891703  0.38448940  0.94077767    -0.18100
C770        C  0.83767822  0.40794434  0.90532782     0.10300
S771        S  0.85124569  0.28529328  0.87839306    -0.33100
S772        S  0.83406431  0.45587299  0.91696170    -0.33100
H773        H  0.81086309  0.46359837  0.88163737     0.28300
H774        H  0.84576568  0.28702713  0.83280269     0.28300
H775        H  0.84709473  0.34647082  0.82245446     0.18900
H776        H  0.83627072  0.39687904  0.97260159     0.18900
C777        C  0.77172154  0.24408197  0.49815685    -0.06900
C778        C  0.75864512  0.23126018  0.53807893    -0.18100
C779        C  0.73316812  0.20322730  0.53972331     0.10300
C780        C  0.71489355  0.18953798  0.00097403    -0.06900
C781        C  0.72765782  0.20278654  0.96110785    -0.18100
C782        C  0.75599412  0.22810810  0.95959012     0.10300
S783        S  0.72688980  0.18354632  0.59276968    -0.33100
S784        S  0.77538212  0.23507667  0.90644173    -0.33100
H785        H  0.81102945  0.23023728  0.92226218     0.28300
H786        H  0.72807578  0.14805986  0.57592697     0.28300
H787        H  0.76938052  0.24205652  0.56866464     0.18900
H788        H  0.71657517  0.19224668  0.93055714     0.18900
C789        C  0.58101468  0.12202405  0.83181002    -0.06900
C790        C  0.59564121  0.15524570  0.84709328    -0.18100
C791        C  0.61931189  0.15723807  0.88344143     0.10300
C792        C  0.62994448  0.12530141  0.90494250    -0.06900
C793        C  0.61745306  0.09198689  0.88798963    -0.18100
C794        C  0.59350724  0.08986897  0.85201738     0.10300
S795        S  0.63329372  0.20160766  0.90228219    -0.33100
S796        S  0.57872660  0.04517571  0.83566529    -0.33100
H797        H  0.54193735  0.05224784  0.84469326     0.28300
H798        H  0.63016305  0.19480513  0.94728113     0.28300
H799        H  0.58717697  0.18028215  0.83204976     0.18900
H800        H  0.62413763  0.06735905  0.90505491     0.18900
C801        C  0.56518193  0.12583060  0.64143995    -0.06900
C802        C  0.60149614  0.11638477  0.64786604    -0.18100
C803        C  0.62613211  0.11572615  0.61294711     0.10300
C804        C  0.61349359  0.12251319  0.56949021    -0.06900
C805        C  0.57676197  0.13299663  0.56417101    -0.18100
C806        C  0.55279634  0.13481717  0.59941600     0.10300
S807        S  0.67355983  0.10808306  0.62593495    -0.33100
S808        S  0.50643571  0.14805204  0.58846719    -0.33100
H809        H  0.50289664  0.17035502  0.62584067     0.28300
H810        H  0.66957867  0.10115024  0.67087946     0.28300
H811        H  0.61062922  0.11035299  0.68077392     0.18900
H812        H  0.56631413  0.14176347  0.53302058     0.18900
C813        C  0.16624514  0.33548444  0.90397246    -0.06900
C814        C  0.13430074  0.33695417  0.87884401    -0.18100
C815        C  0.13114951  0.35987871  0.84271745     0.10300
C816        C  0.16111513  0.38156203  0.83015104    -0.06900
C817        C  0.19364628  0.37860190  0.85418310    -0.18100
C818        C  0.19626415  0.35708571  0.89143231     0.10300
S819        S  0.08763944  0.36104370  0.81566684    -0.33100
S820        S  0.23788692  0.36191604  0.92280977    -0.33100
H821        H  0.23157875  0.33596862  0.95473513     0.28300
H822        H  0.10321480  0.36004834  0.77396817     0.28300
H823        H  0.11070432  0.32188324  0.88907465     0.18900
H824        H  0.21674938  0.39538674  0.84590782     0.18900
C825        C  0.15798228  0.34937657  0.56560887    -0.06900
C826        C  0.12767287  0.34991794  0.59373469    -0.18100
C827        C  0.12624648  0.37270912  0.63055515     0.10300
C828        C  0.15529590  0.39670812  0.63978104    -0.06900
C829        C  0.18471909  0.39768655  0.61086489    -0.18100
C830        C  0.18628634  0.37498763  0.57381862     0.10300
S831        S  0.08737327  0.36805149  0.66560841    -0.33100
S832        S  0.22483435  0.37979004  0.53760844    -0.33100
H833        H  0.24103918  0.40999521  0.55837665     0.28300
H834        H  0.10959344  0.36462316  0.70271129     0.28300
H835        H  0.10446551  0.33276067  0.58786036     0.18900
H836        H  0.20660322  0.41668641  0.61720867     0.18900
C837        C  0.23086472  0.24956324  0.99091575    -0.06900
C838        C  0.24246777  0.23690586  0.53115473    -0.18100
C839        C  0.27147416  0.21271310  0.53420363     0.10300
C840        C  0.28770259  0.19879850  0.49572290    -0.06900
C841        C  0.27604579  0.21114184  0.95532349    -0.18100
C842        C  0.24811098  0.23670177  0.95222904     0.10300
S843        S  0.28735667  0.20234603  0.58837128    -0.33100
S844        S  0.23698979  0.25091800  0.89752709    -0.33100
H845        H  0.22923851  0.28655939  0.90944651     0.28300
H846        H  0.32355235  0.20878579  0.57676048     0.28300
H847        H  0.22953200  0.24530363  0.56141988     0.18900
H848        H  0.28736070  0.20052261  0.92511647     0.18900
C849        C  0.36474104  0.12571731  0.58326321    -0.06900
C850        C  0.38094316  0.15821606  0.59709732    -0.18100
C851        C  0.40432616  0.16001479  0.63354330     0.10300
C852        C  0.41408536  0.12770744  0.65553853    -0.06900
C853        C  0.39648855  0.09524646  0.64258760    -0.18100
C854        C  0.37183543  0.09406676  0.60698625     0.10300
S855        S  0.42267177  0.20387415  0.64873711    -0.33100
S856        S  0.35128680  0.05174783  0.58984852    -0.33100
H857        H  0.36697538  0.03038367  0.62272966     0.28300
H858        H  0.39712225  0.22467602  0.62557526     0.28300
H859        H  0.37754460  0.18191486  0.57710963     0.18900
H860        H  0.40297949  0.07045644  0.65940621     0.18900
C861        C  0.38182296  0.12304520  0.91761291    -0.06900
C862        C  0.41746602  0.10923160  0.92132651    -0.18100
C863        C  0.44147823  0.10937335  0.88613186     0.10300
C864        C  0.42985005  0.12257790  0.84545730    -0.06900
C865        C  0.39396036  0.13413433  0.84020353    -0.18100
C866        C  0.36948376  0.13363677  0.87531681     0.10300
S867        S  0.48707115  0.09327477  0.89558478    -0.33100
S868        S  0.32247268  0.14546603  0.86473447    -0.33100
H869        H  0.32695926  0.15712447  0.82138580     0.28300
H870        H  0.50386839  0.12017479  0.87061018     0.28300
H871        H  0.42749169  0.09791612  0.95136926     0.18900
H872        H  0.38501145  0.14285547  0.80815185     0.18900
C873        C  0.84360194  0.54240079  0.84640202    -0.06900
C874        C  0.87462108  0.54465059  0.87333772    -0.18100
C875        C  0.87561785  0.56700964  0.91076965     0.10300
C876        C  0.84480812  0.58806524  0.92232627    -0.06900
C877        C  0.81483704  0.58817027  0.89373639    -0.18100
C878        C  0.81402004  0.56596270  0.85582289     0.10300
S879        S  0.91649139  0.56551469  0.94377794    -0.33100
S880        S  0.77426939  0.56877122  0.82131476    -0.33100
H881        H  0.79366942  0.56485620  0.78184581     0.28300
H882        H  0.91219738  0.59954848  0.96405559     0.28300
H883        H  0.89780072  0.52738896  0.86658321     0.18900
H884        H  0.79117910  0.60429390  0.90208999     0.18900
C885        C  0.84138298  0.57325993  0.58533171    -0.06900
C886        C  0.86923151  0.57483075  0.61722327    -0.18100
C887        C  0.86904818  0.55253525  0.65367006     0.10300
C888        C  0.84117988  0.52669600  0.65831828    -0.06900
C889        C  0.81377613  0.52412931  0.62651537    -0.18100
C890        C  0.81360346  0.54664077  0.58998061     0.10300
S891        S  0.90424590  0.55997378  0.69424547    -0.33100
S892        S  0.77737514  0.54066604  0.54999544    -0.33100
H893        H  0.76222568  0.51090259  0.06691419     0.28300
H894        H  0.88081584  0.55668297  0.73035547     0.28300
H895        H  0.89147029  0.59361095  0.61517072     0.18900
H896        H  0.79258569  0.50402645  0.63015875     0.18900
C897        C  0.71962852  0.72895896  0.50734588    -0.06900
C898        C  0.73346182  0.71823931  0.54793660    -0.18100
C899        C  0.76106419  0.69233134  0.55097005     0.10300
C900        C  0.77564463  0.67594018  0.01269707    -0.06900
C901        C  0.76270908  0.68792155  0.97226972    -0.18100
C902        C  0.73755733  0.71612096  0.96951287     0.10300
S903        S  0.78080818  0.68700553  0.60474885    -0.33100
S904        S  0.73037359  0.73374760  0.91523482    -0.33100
H905        H  0.72744286  0.76992130  0.92929812     0.28300
H906        H  0.81667989  0.68431515  0.58945498     0.28300
H907        H  0.72359781  0.73091012  0.57775201     0.18900
H908        H  0.77297625  0.67591302  0.94219803     0.18900
C909        C  0.63119135  0.80008494  0.59327970    -0.06900
C910        C  0.61157802  0.83198968  0.60211118    -0.18100
C911        C  0.58747676  0.83482506  0.63752568     0.10300
C912        C  0.58321103  0.80539783  0.66642083    -0.06900
C913        C  0.60474546  0.77431735  0.65920695    -0.18100
C914        C  0.62799939  0.77112411  0.62280814     0.10300
S915        S  0.56032222  0.87532849  0.64077371    -0.33100
S916        S  0.65038993  0.72834622  0.61407667    -0.33100
H917        H  0.64319349  0.72644900  0.56883279     0.28300
H918        H  0.52711330  0.85634379  0.64173520     0.28300
H919        H  0.61294836  0.85406241  0.57912045     0.18900
H920        H  0.60207263  0.75145844  0.68085311     0.18900
C921        C  0.57322365  0.79994247  0.85598955    -0.06900
C922        C  0.57103356  0.82614878  0.88954403    -0.18100
C923        C  0.59435792  0.82525375  0.92605349     0.10300
C924        C  0.61954932  0.79629663  0.93031017    -0.06900
C925        C  0.62316426  0.77185448  0.89456311    -0.18100
C926        C  0.60073226  0.77354921  0.85777016     0.10300
S927        S  0.59225095  0.86209452  0.96578933    -0.33100
S928        S  0.61041759  0.74268407  0.81291634    -0.33100
H929        H  0.60432381  0.76828961  0.77992516     0.28300
H930        H  0.56405246  0.88169914  0.94582731     0.28300
H931        H  0.55077809  0.84729852  0.88718074     0.18900
H932        H  0.64468245  0.75215833  0.89315013     0.18900
C933        C  0.41881955  0.79753352  0.84336723    -0.06900
C934        C  0.41601838  0.76553744  0.86762729    -0.18100
C935        C  0.39207893  0.76266325  0.90300788     0.10300
C936        C  0.37010936  0.79240800  0.91536625    -0.06900
C937        C  0.37067934  0.82346267  0.88938322    -0.18100
C938        C  0.39444645  0.82627081  0.85329296     0.10300
S939        S  0.39268878  0.72105388  0.93314749    -0.33100
S940        S  0.39341523  0.86678371  0.82083963    -0.33100
H941        H  0.36313029  0.88288566  0.84129553     0.28300
H942        H  0.35621596  0.72306592  0.94622411     0.28300
H943        H  0.43378217  0.74288058  0.86025695     0.18900
H944        H  0.35404068  0.84637202  0.89905767     0.18900
C945        C  0.38806330  0.80425947  0.57801814    -0.06900
C946        C  0.38669658  0.83313418  0.60873979    -0.18100
C947        C  0.40851963  0.83372184  0.64631580     0.10300
C948        C  0.43368833  0.80558827  0.65331127    -0.06900
C949        C  0.43688243  0.77790438  0.62178572    -0.18100
C950        C  0.41484813  0.77693462  0.58426860     0.10300
S951        S  0.40116803  0.87019347  0.68516440    -0.33100
S952        S  0.42178381  0.74031858  0.54502807    -0.33100
H953        H  0.44499079  0.71911381  0.57094292     0.28300
H954        H  0.40146133  0.84750753  0.72184233     0.28300
H955        H  0.36826253  0.85541204  0.60497505     0.18900
H956        H  0.45715955  0.75705158  0.62640402     0.18900
C957        C  0.28813541  0.72838490  0.00747978    -0.06900
C958        C  0.27537414  0.71678323  0.96627748    -0.18100
C959        C  0.24676878  0.69205075  0.96177662     0.10300
C960        C  0.23262120  0.67522944  0.49984694    -0.06900
C961        C  0.24666471  0.68499741  0.54100669    -0.18100
C962        C  0.27299739  0.71235207  0.54598868     0.10300
S963        S  0.22642800  0.68657658  0.90802149    -0.33100
S964        S  0.28385411  0.72690082  0.60148177    -0.33100
H965        H  0.26034544  0.70355808  0.62389653     0.28300
H966        H  0.24330097  0.71627818  0.88806374     0.28300
H967        H  0.28706664  0.72795812  0.93698057     0.18900
H968        H  0.23605844  0.67171426  0.56964881     0.18900
C969        C  0.15701982  0.59412952  0.58673858    -0.06900
C970        C  0.18570387  0.59524695  0.61723088    -0.18100
C971        C  0.18535642  0.57325148  0.65459751     0.10300
C972        C  0.15616564  0.54874693  0.66108280    -0.06900
C973        C  0.12600761  0.55058394  0.63287633    -0.18100
C974        C  0.12590313  0.57299066  0.59632486     0.10300
S975        S  0.22289886  0.57762313  0.69245997    -0.33100
S976        S  0.08581913  0.57122702  0.56183067    -0.33100
H977        H  0.09145443  0.60419283  0.54066721     0.28300
H978        H  0.20185064  0.57121659  0.73002723     0.28300
H979        H  0.20935427  0.61183762  0.61074929     0.18900
H980        H  0.10288936  0.53290818  0.63785825     0.18900
C981        C  0.16042375  0.57866711  0.92138627    -0.06900
C982        C  0.16908796  0.54164514  0.92627692    -0.18100
C983        C  0.16870317  0.51748922  0.89082078     0.10300
C984        C  0.16059310  0.53029175  0.84882756    -0.06900
C985        C  0.15413688  0.56705528  0.84268275    -0.18100
C986        C  0.15522185  0.59167056  0.87798191     0.10300
S987        S  0.17917986  0.47067673  0.90113240    -0.33100
S988        S  0.15196471  0.63932780  0.86559286    -0.33100
H989        H  0.15430746  0.63613422  0.81968334     0.28300
H990        H  0.15295532  0.45674969  0.87181812     0.28300
H991        H  0.17742135  0.53096656  0.95747608     0.18900
H992        H  0.14909928  0.57651737  0.80974748     0.18900
C993        C  0.20651022  0.88657317  0.48985485    -0.06900
C994        C  0.21475974  0.86981615  0.52973426    -0.18100
C995        C  0.24598079  0.84875981  0.53494539     0.10300
C996        C  0.27041080  0.84400007  0.99769093    -0.06900
C997        C  0.26178880  0.85962137  0.95734840    -0.18100
C998        C  0.23018699  0.88052460  0.95201435     0.10300
S999        S  0.25184398  0.82724189  0.58711432    -0.33100
S1000       S  0.22329132  0.90052873  0.89917458    -0.33100
H1001       H  0.18881463  0.88453994  0.89341506     0.28300
H1002       H  0.26593138  0.79536857  0.56864094     0.28300
H1003       H  0.19671820  0.87319317  0.55749089     0.18900
H1004       H  0.28026669  0.85619023  0.93000319     0.18900
C1005       C  0.20842855  0.03236730  0.98835980    -0.06900
C1006       C  0.20157426  0.06970036  0.49117401    -0.18100
C1007       C  0.23089741  0.09408275  0.49243816     0.10300
C1008       C  0.26698146  0.08062005  0.49253869    -0.06900
C1009       C  0.27353693  0.04293449  0.99004807    -0.18100
C1010       C  0.24426360  0.01887356  0.98905586     0.10300
S1011       S  0.22140392  0.14184159  0.49198444    -0.33100
S1012       S  0.25430393  0.97122750  0.98846938    -0.33100
H1013       H  0.22882122  0.96308705  0.02108427     0.28300
H1014       H  0.18383555  0.13930036  0.48357281     0.28300
H1015       H  0.17386444  0.07964974  0.49098889     0.18900
H1016       H  0.30099842  0.03225474  0.98990732     0.18900
C1017       C  0.93051939  0.17127844  0.00453905    -0.06900
C1018       C  0.94816420  0.20542659  0.51041129    -0.18100
C1019       C  0.92783983  0.23739929  0.51384026     0.10300
C1020       C  0.88960716  0.23593208  0.50936361    -0.06900
C1021       C  0.87170403  0.20124221  0.00618619    -0.18100
C1022       C  0.89220041  0.16927033  0.00309500     0.10300
S1023       S  0.95227796  0.27897955  0.52459486    -0.33100
S1024       S  0.86789280  0.12702695  0.99690827    -0.33100
H1025       H  0.89425443  0.10507234  0.01680680     0.28300
H1026       H  0.92389709  0.29673033  0.54687531     0.28300
H1027       H  0.97753300  0.20677698  0.51357525     0.18900
H1028       H  0.84233295  0.19959664  0.00358171     0.18900
C1029       C  0.11490958  0.23485300  0.48492085    -0.06900
C1030       C  0.12450906  0.20750291  0.51442735    -0.18100
C1031       C  0.10539859  0.17457915  0.51547332     0.10300
C1032       C  0.07549402  0.16888168  0.48687560    -0.06900
C1033       C  0.06555735  0.19669976  0.95831212    -0.18100
C1034       C  0.08484818  0.22938180  0.95757706     0.10300
S1035       S  0.12111022  0.14064545  0.55298506    -0.33100
S1036       S  0.06864670  0.26392691  0.92137252    -0.33100
H1037       H  0.07676098  0.29320624  0.94968742     0.28300
H1038       H  0.11237681  0.11102237  0.52538126     0.28300
H1039       H  0.14705315  0.21191584  0.53691372     0.18900
H1040       H  0.04181281  0.19361891  0.93738312     0.18900
C1041       C  0.79407938  0.88808392  0.00671146    -0.06900
C1042       C  0.77096811  0.88838631  0.54268710    -0.18100
C1043       C  0.73906565  0.86744844  0.54327287     0.10300
C1044       C  0.73084757  0.84420272  0.50751265    -0.06900
C1045       C  0.75217608  0.84569161  0.97145230    -0.18100
C1046       C  0.78432661  0.86586771  0.97038773     0.10300
S1047       S  0.70872873  0.87340431  0.58900512    -0.33100
S1048       S  0.81214948  0.86081804  0.92217260    -0.29900
H1049       H  0.84521268  0.86032503  0.94562585     0.28300
H1050       H  0.67684695  0.87148910  0.56348431     0.28300
H1051       H  0.77619259  0.90709076  0.56966585     0.18900
H1052       H  0.74492526  0.82938647  0.94299766     0.18900
C1053       C  0.79314675  0.03566541  0.50040907    -0.06900
C1054       C  0.77261024  0.03783339  0.96078037    -0.18100
C1055       C  0.73961233  0.05663575  0.95800936     0.10300
C1056       C  0.72564026  0.07438479  0.99543219    -0.06900
C1057       C  0.74624190  0.07274976  0.53478697    -0.18100
C1058       C  0.77948061  0.05438700  0.53761963     0.10300
S1059       S  0.71525331  0.05467643  0.90677259    -0.33100
S1060       S  0.80339747  0.05721372  0.58923165    -0.33100
H1061       H  0.83759270  0.06288664  0.56986398     0.28300
H1062       H  0.68141540  0.04955112  0.92691442     0.28300
H1063       H  0.78202084  0.02328572  0.93191873     0.18900
H1064       H  0.73594785  0.08631675  0.56380901     0.18900
C1065       C  0.88982582  0.68722175  0.00700871    -0.06900
C1066       C  0.89167459  0.70888646  0.54511838    -0.18100
C1067       C  0.91130837  0.74147019  0.54480775     0.10300
C1068       C  0.92874796  0.75230678  0.50579497    -0.06900
C1069       C  0.92585179  0.73116589  0.96751889    -0.18100
C1070       C  0.90649167  0.69837310  0.96791265     0.10300
S1071       S  0.91273921  0.76896011  0.59434841    -0.33100
S1072       S  0.90541394  0.67003681  0.91916163    -0.33100
H1073       H  0.92351177  0.69410019  0.89133115     0.28300
H1074       H  0.89052534  0.74689415  0.62026479     0.28300
H1075       H  0.87850115  0.70064738  0.57499569     0.18900
H1076       H  0.93952743  0.73900782  0.93776657     0.18900
C1077       C  0.07588609  0.75758667  0.99902287    -0.06900
C1078       C  0.07596822  0.73393929  0.53685820    -0.18100
C1079       C  0.09654936  0.70196703  0.53791078     0.10300
C1080       C  0.11687759  0.69158466  0.50078628    -0.06900
C1081       C  0.11786491  0.71582994  0.96341913    -0.18100
C1082       C  0.09835754  0.74838095  0.96308408     0.10300
S1083       S  0.09486865  0.67376232  0.58572858    -0.33100
S1084       S  0.10461710  0.77757732  0.91684923    -0.33100
H1085       H  0.10293925  0.80993597  0.94169764     0.28300
H1086       H  0.07487842  0.69779650  0.61244512     0.28300
H1087       H  0.05880158  0.74081685  0.56448375     0.18900
H1088       H  0.13448048  0.70862786  0.93535070     0.18900
loop_ 
_geom_bond_atom_site_label_1 
_geom_bond_atom_site_label_2 
_geom_bond_distance 
_geom_bond_site_symmetry_2 
_ccdc_geom_bond_type 
O1            V9   1.902   1_655  S
O1           C11   1.265       .  A
O2            V9   1.898       .  S
O2          C556   1.265   1_554  A
O3            V9   1.900   1_655  S
O3           C13   1.262       .  A
O4            V9   1.894       .  S
O4          C558   1.263   1_554  A
O5           V10   1.909   1_455  S
O5           C14   1.267       .  A
O6           V10   1.910       .  S
O6          C557   1.268       .  A
O7           V10   1.901   1_455  S
O7           C12   1.262       .  A
O8           V10   1.901       .  S
O8          C555   1.265       .  A
V9          V554   2.086   1_454  T
V10         V553   2.086   1_655  T
C11         O552   1.265   1_554  A
C11         C524   1.491       .  S
C12         O546   1.265       .  A
C12         C598   1.465       .  S
C13         O550   1.268   1_554  A
C13         C571   1.473       .  S
C14         O548   1.263       .  A
C14         C533   1.485       .  S
O15          V23   1.906       .  S
O15          C25   1.267       .  A
O16          V23   1.908       .  S
O16         C570   1.267   1_565  A
O17          V23   1.898       .  S
O17          C27   1.262       .  A
O18          V23   1.893       .  S
O18         C572   1.263   1_565  A
O19          V24   1.912       .  S
O19          C28   1.268   1_565  A
O20          V24   1.912       .  S
O20         C571   1.268       .  A
O21          V24   1.907   1_545  S
O21          C26   1.264       .  A
O22          V24   1.902       .  S
O22         C569   1.264       .  A
V23         V568   2.085       .  T
V24         V567   2.085   1_554  T
C25         O566   1.264       .  A
C25         C497   1.489       .  S
C26         O560   1.267   1_544  A
C26         C585   1.475   1_554  S
C27         O564   1.268       .  A
C27         C557   1.474       .  S
C28         O562   1.263   1_544  A
C28         C509   1.492       .  S
O29          V37   1.913       .  S
O29          C39   1.267       .  A
O30          V37   1.914   1_455  S
O30         C584   1.268       .  A
O31          V37   1.900       .  S
O31          C41   1.263       .  A
O32          V37   1.898   1_455  S
O32         C586   1.264       .  A
O33          V38   1.912       .  S
O33          C42   1.268   1_554  A
O34          V38   1.915   1_655  S
O34         C585   1.268   1_554  A
O35          V38   1.895       .  S
O35          C40   1.262   1_554  A
O36          V38   1.896   1_655  S
O36         C583   1.261       .  A
V37         V582   2.086   1_655  T
V38         V581   2.087   1_454  T
C39         O580   1.262       .  A
C39         C473   1.474       .  S
C40         O574   1.268       .  A
C40         C599   1.474       .  S
C41         O578   1.269       .  A
C41         C570   1.478       .  S
C42         O576   1.263       .  A
C42         C488   1.484       .  S
O43          V51   1.906       .  S
O43          C53   1.266   1_565  A
O44          V51   1.909       .  S
O44         C598   1.267       .  A
O45          V51   1.907       .  S
O45          C55   1.264   1_565  A
O46          V51   1.904       .  S
O46         C600   1.264       .  A
O47          V52   1.901       .  S
O47          C56   1.267   1_554  A
O48          V52   1.902       .  S
O48         C599   1.266   1_564  A
O49          V52   1.888       .  S
O49          C54   1.260   1_554  A
O50          V52   1.889       .  S
O50         C597   1.260   1_564  A
V51         V596   2.087       .  T
V52         V595   2.087   1_554  T
C53         O594   1.260   1_545  A
C53         C461   1.465       .  S
C54         O588   1.267       .  A
C54         C556   1.464       .  S
C55         O592   1.266   1_545  A
C55         C584   1.472       .  S
C56         O590   1.264       .  A
C56         C449   1.494       .  S
C57          C58   1.544       .  S
C57          C63   1.534       .  S
C57          C61   1.527       .  S
C57         C437   1.533       .  S
C58          H65   1.085       .  S
C58         C603   1.367       .  D
C59          C60   1.538   1_556  S
C59         C602   1.367       .  D
C59         C536   1.485       .  S
C60          C64   1.552       .  S
C60          C62   1.549   1_554  S
C60          H66   1.110       .  S
C61          H67   1.085       .  S
C61         C606   1.363       .  D
C62         C605   1.362       .  D
C62         C416   1.493       .  S
C63         H612   1.083       .  S
C63         C608   1.361       .  D
C64         C607   1.361       .  D
C64         C425   1.490       .  S
H68         C607   1.084       .  S
C69          C70   1.551       .  S
C69          C75   1.525   1_554  S
C69          C73   1.536       .  S
C69         C401   1.535       .  S
C70          H77   1.081       .  S
C70         C615   1.366       .  D
C71          C72   1.534       .  S
C71         C614   1.367       .  D
C71         C452   1.490       .  S
C72          C76   1.552       .  S
C72          C74   1.555       .  S
C72          H78   1.108       .  S
C73          H79   1.081       .  S
C73         C618   1.364       .  D
C74         C617   1.364       .  D
C74         C413   1.504       .  S
C75         H624   1.087       .  S
C75         C620   1.359       .  D
C76         C619   1.359       .  D
C76         C392   1.488       .  S
H80         C619   1.087       .  S
O81          V89   1.903       .  S
O81          C91   1.266       .  A
O82          V89   1.905       .  S
O82          C92   1.266       .  A
O83          V89   1.891       .  S
O83          C93   1.263       .  A
O84          V89   1.891       .  S
O84          C94   1.264       .  A
O85          V90   1.894       .  S
O85          C94   1.262       .  A
O86          V90   1.895       .  S
O86          C93   1.263       .  A
O87          V90   1.915       .  S
O87          C92   1.268       .  A
O88          V90   1.917       .  S
O88          C91   1.268       .  A
V89          V90   2.084       .  T
C91         C389   1.501       .  S
C92         C368   1.500       .  S
C93         C377   1.473       .  S
C94         C404   1.474       .  S
C95          C96   1.538       .  S
C95         C101   1.526       .  S
C95          C99   1.540       .  S
C95         C380   1.534       .  S
C96         H103   1.087       .  S
C96         C641   1.365       .  D
C97          C98   1.540       .  S
C97         C640   1.366   1_554  D
C97         C500   1.490       .  S
C98         C102   1.561       .  S
C98         C100   1.551       .  S
C98         H104   1.109       .  S
C99         H105   1.079       .  S
C99         C644   1.360       .  D
C100        C643   1.360   1_554  D
C100        C353   1.496       .  S
C101        H650   1.087       .  S
C101        C646   1.364       .  D
C102        C645   1.363       .  D
C102        C365   1.493       .  S
H106        C645   1.087       .  S
C107        C108   1.554       .  S
C107        C113   1.522       .  S
C107        C111   1.529       .  S
C107        C341   1.530       .  S
C108        H115   1.080       .  S
C108        C653   1.369       .  D
C109        C110   1.536       .  S
C109        C652   1.369       .  D
C109        C521   1.492       .  S
C110        C114   1.553       .  S
C110        C112   1.550       .  S
C110        H116   1.108       .  S
C111        H117   1.085       .  S
C111        C656   1.360       .  D
C112        C655   1.361       .  D
C112        C356   1.493       .  S
C113        H662   1.087   1_554  S
C113        C658   1.360   1_554  D
C114        C657   1.360       .  D
C114        C332   1.489       .  S
H118        C657   1.087       .  S
C119        C120   1.532       .  S
C119        C125   1.538       .  S
C119        C123   1.537       .  S
C119        C317   1.535       .  S
C120        H127   1.087       .  S
C120        C665   1.364       .  D
C121        C122   1.542   1_556  S
C121        C664   1.363       .  D
C121        C464   1.486       .  S
C122        C126   1.553       .  S
C122        C124   1.550   1_554  S
C122        H128   1.107       .  S
C123        H129   1.086       .  S
C123        C668   1.369       .  D
C124        C667   1.368       .  D
C124        C296   1.497       .  S
C125        H674   1.082       .  S
C125        C670   1.360       .  D
C126        C669   1.360       .  D
C126        C305   1.489       .  S
H130        C669   1.082       .  S
C131        C132   1.548       .  S
C131        C137   1.521   1_554  S
C131        C135   1.533       .  S
C131        C281   1.532       .  S
C132        H139   1.082       .  S
C132        C677   1.365   1_554  D
C133        C134   1.540       .  S
C133        C676   1.365       .  D
C133       C1029   1.487       .  S
C134        C138   1.556       .  S
C134        C136   1.549       .  S
C134        H140   1.106       .  S
C135        H141   1.085       .  S
C135        C680   1.372   1_554  D
C136        C679   1.372       .  D
C136        C293   1.501       .  S
C137        H686   1.087       .  S
C137        C682   1.356       .  D
C138        C681   1.357       .  D
C138        C269   1.486       .  S
H142        C681   1.087       .  S
O143        V151   1.903       .  S
O143        C153   1.267       .  A
O144        V151   1.909       .  S
O144        C154   1.266       .  A
O145        V151   1.895       .  S
O145        C155   1.262       .  A
O146        V151   1.895       .  S
O146        C156   1.265       .  A
O147        V152   1.894       .  S
O147        C156   1.262       .  A
O148        V152   1.891       .  S
O148        C155   1.261       .  A
O149        V152   1.906       .  S
O149        C154   1.267       .  A
O150        V152   1.911       .  S
O150        C153   1.266       .  A
V151        V152   2.085       .  T
C153        C272   1.495       .  S
C154        C428   1.494       .  S
C155        C440   1.458       .  S
C156        C284   1.481       .  S
O157        V165   1.906       .  S
O157        C167   1.266       .  A
O158        V165   1.912       .  S
O158        C168   1.268       .  A
O159        V165   1.894       .  S
O159        C169   1.262       .  A
O160        V165   1.896       .  S
O160        C170   1.262       .  A
O161        V166   1.895       .  S
O161        C170   1.262       .  A
O162        V166   1.891       .  S
O162        C169   1.261       .  A
O163        V166   1.912       .  S
O163        C168   1.267       .  A
O164        V166   1.914       .  S
O164        C167   1.269       .  A
V165        V166   2.084       .  T
C167        C308   1.505       .  S
C168        C245   1.507       .  S
C169        C257   1.458       .  S
C170        C320   1.464       .  S
C171        C172   1.540       .  S
C171        C177   1.535   1_554  S
C171        C175   1.532       .  S
C171        C260   1.535       .  S
C172        H179   1.085       .  S
C172        C717   1.366   1_554  D
C173        C174   1.545       .  S
C173        C716   1.367       .  D
C173        C512   1.492       .  S
C174        C178   1.558       .  S
C174        C176   1.551       .  S
C174        H180   1.109       .  S
C175        H181   1.085       .  S
C175        C720   1.364       .  D
C176        C719   1.364       .  D
C176        C236   1.499       .  S
C177        H726   1.083       .  S
C177        C722   1.360       .  D
C178        C721   1.359       .  D
C178        C248   1.493       .  S
H182        C721   1.083       .  S
C183        C184   1.540       .  S
C183        C189   1.539       .  S
C183        C187   1.537       .  S
C183        C224   1.537       .  S
C184        H191   1.086       .  S
C184        C729   1.366       .  D
C185        C186   1.538       .  S
C185        C728   1.366   1_554  D
C185        C476   1.487       .  S
C186        C190   1.550       .  S
C186        C188   1.551       .  S
C186        H192   1.109       .  S
C187        H193   1.084       .  S
C187        C732   1.365       .  D
C188        C731   1.365   1_554  D
C188        C233   1.502   1_554  S
C189        H738   1.079       .  S
C189        C734   1.360       .  D
C190        C733   1.360       .  D
C190        C212   1.489       .  S
H194        C733   1.080       .  S
O195        V203   1.906       .  S
O195        C205   1.267       .  A
O196        V203   1.905       .  S
O196        C206   1.265       .  A
O197        V203   1.895       .  S
O197        C207   1.264       .  A
O198        V203   1.893       .  S
O198        C208   1.262       .  A
O199        V204   1.886       .  S
O199        C208   1.259       .  A
O200        V204   1.884       .  S
O200        C207   1.260       .  A
O201        V204   1.910       .  S
O201        C206   1.268       .  A
O202        V204   1.914       .  S
O202        C205   1.268       .  A
V203        V204   2.086       .  T
C205        C209   1.503       .  S
C206        C329   1.495       .  S
C207        C344   1.467       .  S
C208        C221   1.454       .  S
C209        C210   1.408       .  A
C209        C214   1.421       .  A
C210        C211   1.401       .  A
C210        H219   1.083       .  S
C211        C212   1.411       .  A
C211        S215   1.803       .  S
C212        C213   1.404       .  A
C213        C214   1.412       .  A
C213        H220   1.082       .  S
C214        S216   1.807       .  S
S215        H218   1.402       .  S
S216        H217   1.407       .  S
C221        C222   1.391       .  A
C221        C226   1.402       .  A
C222        C223   1.398       .  A
C222        H231   1.083       .  S
C223        C224   1.427       .  A
C223        S227   1.809       .  S
C224        C225   1.416       .  A
C225        C226   1.395       .  A
C225        H232   1.071       .  S
C226        S228   1.806       .  S
S227        H230   1.406       .  S
S228        H229   1.404       .  S
C233        C234   1.399   1_556  A
C233        C782   1.424       .  A
C234        C235   1.398       .  A
C234        H243   1.082       .  S
C235        C780   1.424       .  A
C235        S239   1.797       .  S
C236        C237   1.400       .  A
C236        C779   1.423       .  A
C237        C238   1.400       .  A
C237        H244   1.083       .  S
C238        C777   1.423       .  A
C238        S240   1.796       .  S
S239        H242   1.402       .  S
S240        H241   1.407       .  S
C245        C246   1.412       .  A
C245        C250   1.422       .  A
C246        C247   1.408       .  A
C246        H255   1.083       .  S
C247        C248   1.413       .  A
C247        S251   1.804       .  S
C248        C249   1.404       .  A
C249        C250   1.405       .  A
C249        H256   1.082       .  S
C250        S252   1.801       .  S
S251        H254   1.403       .  S
S252        H253   1.406       .  S
C257        C258   1.393       .  A
C257        C262   1.403       .  A
C258        C259   1.400       .  A
C258        H267   1.083       .  S
C259        C260   1.429       .  A
C259        S263   1.809       .  S
C260        C261   1.414       .  A
C261        C262   1.394       .  A
C261        H268   1.077       .  S
C262        S264   1.805       .  S
S263        H266   1.406       .  S
S264        H265   1.403       .  S
C269        C270   1.400       .  A
C269        C274   1.419       .  A
C270        C271   1.403       .  A
C270        H279   1.079       .  S
C271        C272   1.418       .  A
C271        S275   1.796       .  S
C272        C273   1.405       .  A
C273        C274   1.400       .  A
C273        H280   1.084       .  S
C274        S276   1.808       .  S
S275        H278   1.398       .  S
S276        H277   1.396       .  S
C281        C282   1.408       .  A
C281        C286   1.425       .  A
C282        C283   1.395       .  A
C282        H291   1.076       .  S
C283        C284   1.413       .  A
C283        S287   1.798       .  S
C284        C285   1.400       .  A
C285        C286   1.399       .  A
C285        H292   1.082       .  S
C286        S288   1.811       .  S
S287        H290   1.398       .  S
S288        H289   1.406       .  S
C293        C298   1.419       .  A
C293        C838   1.412       .  A
C294        C295   1.395       .  A
C294        C837   1.412   1_554  A
C294        H303   1.082       .  S
C295        C296   1.408   1_554  A
C295        S299   1.794       .  S
C296        C841   1.410       .  A
C297        C298   1.399       .  A
C297        C840   1.409       .  A
C297        H304   1.082       .  S
C298        S300   1.801       .  S
S299        H302   1.406       .  S
S300        H301   1.392       .  S
C305        C306   1.399       .  A
C305        C310   1.409       .  A
C306        C307   1.407       .  A
C306        H315   1.079       .  S
C307        C308   1.423       .  A
C307        S311   1.808       .  S
C308        C309   1.411       .  A
C309        C310   1.409       .  A
C309        H316   1.082       .  S
C310        S312   1.807       .  S
S311        H314   1.407       .  S
S312        H313   1.407       .  S
C317        C318   1.412       .  A
C317        C322   1.425       .  A
C318        C319   1.394       .  A
C318        H327   1.076       .  S
C319        C320   1.404       .  A
C319        S323   1.803       .  S
C320        C321   1.397       .  A
C321        C322   1.402       .  A
C321        H328   1.083       .  S
C322        S324   1.811       .  S
S323        H326   1.405       .  S
S324        H325   1.407       .  S
C329        C330   1.404       .  A
C329        C334   1.421       .  A
C330        C331   1.399       .  A
C330        H339   1.083       .  S
C331        C332   1.417       .  A
C331        S335   1.806       .  S
C332        C333   1.402       .  A
C333        C334   1.408       .  A
C333        H340   1.084       .  S
C334        S336   1.801       .  S
S335        H338   1.403       .  S
S336        H337   1.408       .  S
C341        C342   1.410       .  A
C341        C346   1.426       .  A
C342        C343   1.392       .  A
C342        H351   1.074       .  S
C343        C344   1.408       .  A
C343        S347   1.805       .  S
C344        C345   1.397       .  A
C345        C346   1.399       .  A
C345        H352   1.083       .  S
C346        S348   1.814       .  S
S347        H350   1.408       .  S
S348        H893   1.406       .  S
H349        S892   1.407       .  S
C353        C354   1.398       .  A
C353        C902   1.426   1_554  A
C354        C355   1.400       .  A
C354        H363   1.082       .  S
C355        C900   1.427       .  A
C355        S359   1.805       .  S
C356        C357   1.397       .  A
C356        C899   1.425       .  A
C357        C358   1.397       .  A
C357        H364   1.083       .  S
C358        C897   1.427       .  A
C358        S360   1.806       .  S
S359        H362   1.404       .  S
S360        H361   1.403       .  S
C365        C366   1.405       .  A
C365        C370   1.412       .  A
C366        C367   1.403       .  A
C366        H375   1.084       .  S
C367        C368   1.418       .  A
C367        S371   1.801       .  S
C368        C369   1.411       .  A
C369        C370   1.407       .  A
C369        H376   1.083       .  S
C370        S372   1.801       .  S
S371        H374   1.408       .  S
S372        H373   1.404       .  S
C377        C378   1.402       .  A
C377        C382   1.407       .  A
C378        C379   1.404       .  A
C378        H387   1.082       .  S
C379        C380   1.422       .  A
C379        S383   1.812       .  S
C380        C381   1.412       .  A
C381        C382   1.391       .  A
C381        H388   1.075       .  S
C382        S384   1.806       .  S
S383        H386   1.406       .  S
S384        H385   1.408       .  S
C389        C390   1.407       .  A
C389        C394   1.420       .  A
C390        C391   1.400       .  A
C390        H399   1.084       .  S
C391        C392   1.411       .  A
C391        S395   1.802       .  S
C392        C393   1.404       .  A
C393        C394   1.413       .  A
C393        H400   1.083       .  S
C394        S396   1.806       .  S
S395        H398   1.401       .  S
S396        H397   1.407       .  S
C401        C402   1.412       .  A
C401        C406   1.425       .  A
C402        C403   1.396       .  A
C402        H411   1.076       .  S
C403        C404   1.410       .  A
C403        S407   1.803       .  S
C404        C405   1.399       .  A
C405        C406   1.398       .  A
C405        H412   1.083       .  S
C406        S408   1.813       .  S
S407        H410   1.407       .  S
S408        H409   1.406       .  S
C413        C414   1.402       .  A
C413        C962   1.430       .  A
C414        C415   1.398       .  A
C414        H423   1.080       .  S
C415        C960   1.418       .  A
C415        S419   1.809       .  S
C416        C417   1.398   1_556  A
C416        C959   1.419       .  A
C417        C418   1.405       .  A
C417        H424   1.082       .  S
C418        C957   1.430       .  A
C418        S420   1.811       .  S
S419        H422   1.406       .  S
S420        H421   1.407       .  S
C425        C426   1.403       .  A
C425        C430   1.418       .  A
C426        C427   1.408       .  A
C426        H435   1.084       .  S
C427        C428   1.420       .  A
C427        S431   1.801       .  S
C428        C429   1.403       .  A
C429        C430   1.398       .  A
C429        H436   1.084       .  S
C430        S432   1.808       .  S
S431        H434   1.408       .  S
S432        H433   1.402       .  S
C437        C438   1.414       .  A
C437        C442   1.427       .  A
C438        C439   1.393       .  A
C438        H447   1.078       .  S
C439        C440   1.402       .  A
C439        S443   1.803       .  S
C440        C441   1.394       .  A
C441        C442   1.401       .  A
C441        H448   1.083       .  S
C442        S444   1.810       .  S
S443        H446   1.405       .  S
S444        H445   1.406       .  S
C449        C450   1.404   1_556  A
C449        C998   1.422       .  A
C450        C451   1.396       .  A
C450        H459   1.084       .  S
C451        C996   1.416   1_554  A
C451        S455   1.800       .  S
C452        C453   1.401       .  A
C452        C995   1.415       .  A
C453        C454   1.405       .  A
C453        H460   1.084       .  S
C454        C993   1.422       .  A
C454        S456   1.799       .  S
S455        H458   1.399       .  S
S456        H457   1.407       .  S
C461        C466   1.409       .  A
C461       C1006   1.398       .  A
C462        C463   1.404       .  A
C462       C1005   1.397       .  A
C462        H471   1.083       .  S
C463        C464   1.417       .  A
C463        S467   1.798       .  S
C464       C1009   1.402       .  A
C465        C466   1.394       .  A
C465       C1008   1.402       .  A
C465        H472   1.084       .  S
C466        S468   1.798   1_545  S
S467        H470   1.406       .  S
S468        H469   1.405       .  S
C473        C478   1.410       .  A
C473       C1018   1.404       .  A
C474        C475   1.401       .  A
C474       C1017   1.403       .  A
C474        H483   1.085       .  S
C475        C476   1.413       .  A
C475        S479   1.804       .  S
C476       C1021   1.407       .  A
C477        C478   1.403       .  A
C477       C1020   1.407       .  A
C477        H484   1.084       .  S
C478        S480   1.804       .  S
S479        H482   1.405       .  S
S480        H481   1.406       .  S
C485        C677   1.485       .  S
C485        C486   1.406   1_556  A
C485       C1034   1.409       .  A
C486        C487   1.404       .  A
C486        H495   1.084       .  S
C487        C488   1.414   1_554  A
C487        S491   1.803       .  S
C488       C1033   1.406       .  A
C489        C490   1.401       .  A
C489       C1032   1.407       .  A
C489        H496   1.084       .  S
C490       C1029   1.408       .  A
C490        S492   1.798       .  S
S491        H494   1.407       .  S
S492        H493   1.406       .  S
C497        C502   1.414       .  A
C497       C1042   1.409       .  A
C498        C499   1.405       .  A
C498       C1041   1.410       .  A
C498        H507   1.084       .  S
C499        C500   1.411       .  A
C499        S503   1.801       .  S
C500       C1045   1.404   1_554  A
C501        C502   1.400       .  A
C501       C1044   1.404       .  A
C501        H508   1.082       .  S
C502        S504   1.803       .  S
S503        H506   1.404       .  S
S504        H505   1.408       .  S
C509        C514   1.415       .  A
C509       C1054   1.411   1_554  A
C510        C511   1.401       .  A
C510       C1053   1.411       .  A
C510        H519   1.083       .  S
C511        C512   1.408       .  A
C511        S515   1.798       .  S
C512       C1057   1.407       .  A
C513        C514   1.401       .  A
C513       C1056   1.407   1_554  A
C513        H520   1.081       .  S
C514        S516   1.802       .  S
S515        H518   1.403       .  S
S516        H517   1.408       .  S
C521        C526   1.410       .  A
C521       C1066   1.405       .  A
C522        C523   1.402       .  A
C522       C1065   1.405       .  A
C522        H531   1.081       .  S
C523        C524   1.416       .  A
C523        S527   1.809       .  S
C524       C1069   1.410   1_554  A
C525        C526   1.406       .  A
C525       C1068   1.410       .  A
C525        H532   1.082       .  S
C526        S528   1.807       .  S
S527        H530   1.407       .  S
S528        H529   1.406       .  S
C533        C538   1.413       .  A
C533       C1078   1.408       .  A
C534        C535   1.403       .  A
C534       C1077   1.408   1_554  A
C534        H543   1.082       .  S
C535        C536   1.409   1_554  A
C535        S539   1.805       .  S
C536       C1081   1.405       .  A
C537        C538   1.400       .  A
C537       C1080   1.405       .  A
C537        H544   1.084       .  S
C538        S540   1.802       .  S
S539        H542   1.406       .  S
S540        H541   1.408       .  S
O545        V553   1.903   1_655  S
O545        C555   1.265       .  A
O546        V553   1.898       .  S
O547        V553   1.901   1_655  S
O547        C557   1.262       .  A
O548        V553   1.894       .  S
O549        V554   1.908   1_455  S
O549        C558   1.267       .  A
O550        V554   1.909       .  S
O551        V554   1.899   1_455  S
O551        C556   1.262       .  A
O552        V554   1.898       .  S
C555       C1068   1.493       .  S
C558       C1077   1.485       .  S
O559        V567   1.904       .  S
O559        C569   1.266   1_556  A
O560        V567   1.906       .  S
O561        V567   1.897       .  S
O561        C571   1.262   1_556  A
O562        V567   1.892       .  S
O563        V568   1.912       .  S
O563        C572   1.268   1_565  A
O564        V568   1.913       .  S
O565        V568   1.909   1_545  S
O565        C570   1.264       .  A
O566        V568   1.902       .  S
C569       C1041   1.489       .  S
C572       C1053   1.493       .  S
O573        V581   1.913       .  S
O573        C583   1.267   1_556  A
O574        V581   1.916   1_455  S
O575        V581   1.898       .  S
O575        C585   1.263       .  A
O576        V581   1.896   1_455  S
O577        V582   1.913       .  S
O577        C586   1.268       .  A
O578        V582   1.917   1_655  S
O579        V582   1.895       .  S
O579        C584   1.262       .  A
O580        V582   1.896   1_655  S
C583       C1017   1.475       .  S
C586       C1032   1.487       .  S
O587        V595   1.907       .  S
O587        C597   1.266   1_565  A
O588        V595   1.908       .  S
O589        V595   1.909       .  S
O589        C599   1.265   1_565  A
O590        V595   1.904       .  S
O591        V596   1.900       .  S
O591        C600   1.267       .  A
O592        V596   1.901       .  S
O593        V596   1.889       .  S
O593        C598   1.260       .  A
O594        V596   1.889       .  S
C597       C1005   1.466       .  S
C600        C993   1.493       .  S
C601        C602   1.544       .  S
C601        C607   1.534   1_556  S
C601        C605   1.527       .  S
C601        C981   1.532       .  S
C602        H609   1.085       .  S
C603        C604   1.537       .  S
C603       C1080   1.484       .  S
C604        C608   1.551       .  S
C604        C606   1.549       .  S
C604        H610   1.110       .  S
C605        H611   1.085       .  S
C606        C960   1.493       .  S
C608        C969   1.490       .  S
C613        C614   1.553       .  S
C613        C619   1.525       .  S
C613        C617   1.537       .  S
C613        C945   1.535       .  S
C614        H621   1.079       .  S
C615        C616   1.536   1_554  S
C615        C996   1.491   1_554  S
C616        C620   1.553       .  S
C616        C618   1.555   1_556  S
C616        H622   1.108       .  S
C617        H623   1.081       .  S
C618        C957   1.503       .  S
C620        C936   1.489       .  S
O625        V633   1.905       .  S
O625        C635   1.267       .  A
O626        V633   1.906       .  S
O626        C636   1.266       .  A
O627        V633   1.893       .  S
O627        C637   1.264       .  A
O628        V633   1.894       .  S
O628        C638   1.264       .  A
O629        V634   1.891       .  S
O629        C638   1.262       .  A
O630        V634   1.893       .  S
O630        C637   1.262       .  A
O631        V634   1.914       .  S
O631        C636   1.268       .  A
O632        V634   1.916       .  S
O632        C635   1.268       .  A
V633        V634   2.084       .  T
C635        C933   1.500       .  S
C636        C912   1.499       .  S
C637        C921   1.472       .  S
C638        C948   1.475       .  S
C639        C640   1.537       .  S
C639        C645   1.526   1_556  S
C639        C643   1.539       .  S
C639        C924   1.533       .  S
C640        H647   1.087       .  S
C641        C642   1.540       .  S
C641       C1044   1.488       .  S
C642        C646   1.561       .  S
C642        C644   1.552       .  S
C642        H648   1.109       .  S
C643        H649   1.080       .  S
C644        C897   1.497       .  S
C646        C909   1.495       .  S
C651        C652   1.555       .  S
C651        C657   1.522       .  S
C651        C655   1.530       .  S
C651        C885   1.531       .  S
C652        H659   1.080       .  S
C653        C654   1.536   1_554  S
C653       C1065   1.490       .  S
C654        C658   1.555       .  S
C654        C656   1.552   1_556  S
C654        H660   1.108       .  S
C655        H661   1.085       .  S
C656        C900   1.496       .  S
C658        C876   1.491       .  S
C663        C664   1.532       .  S
C663        C669   1.537   1_556  S
C663        C667   1.536       .  S
C663        C861   1.533       .  S
C664        H671   1.087       .  S
C665        C666   1.541       .  S
C665       C1008   1.485       .  S
C666        C670   1.551       .  S
C666        C668   1.549       .  S
C666        H672   1.107       .  S
C667        H673   1.086       .  S
C668        C840   1.497       .  S
C670        C849   1.487       .  S
C675        C676   1.548       .  S
C675        C681   1.523       .  S
C675        C679   1.534       .  S
C675        C825   1.535       .  S
C676        H683   1.081       .  S
C677        C678   1.540       .  S
C678        C682   1.556       .  S
C678        C680   1.550       .  S
C678        H684   1.106       .  S
C679        H685   1.085       .  S
C680        C837   1.501       .  S
C682        C813   1.484       .  S
O687        V695   1.900       .  S
O687        C697   1.266       .  A
O688        V695   1.908       .  S
O688        C698   1.266       .  A
O689        V695   1.895       .  S
O689        C699   1.262       .  A
O690        V695   1.895       .  S
O690        C700   1.265       .  A
O691        V696   1.894       .  S
O691        C700   1.262       .  A
O692        V696   1.890       .  S
O692        C699   1.261       .  A
O693        V696   1.906       .  S
O693        C698   1.268       .  A
O694        V696   1.911       .  S
O694        C697   1.266       .  A
V695        V696   2.085       .  T
C697        C816   1.495       .  S
C698        C972   1.493       .  S
C699        C984   1.457       .  S
C700        C828   1.481       .  S
O701        V709   1.903       .  S
O701        C711   1.265       .  A
O702        V709   1.910       .  S
O702        C712   1.268       .  A
O703        V709   1.895       .  S
O703        C713   1.262       .  A
O704        V709   1.895       .  S
O704        C714   1.262       .  A
O705        V710   1.894       .  S
O705        C714   1.262       .  A
O706        V710   1.892       .  S
O706        C713   1.261       .  A
O707        V710   1.913       .  S
O707        C712   1.267       .  A
O708        V710   1.917       .  S
O708        C711   1.269       .  A
V709        V710   2.084       .  T
C711        C852   1.504       .  S
C712        C789   1.506       .  S
C713        C801   1.459       .  S
C714        C864   1.462       .  S
C715        C716   1.540       .  S
C715        C721   1.535       .  S
C715        C719   1.532       .  S
C715        C804   1.535       .  S
C716        H723   1.085       .  S
C717        C718   1.544       .  S
C717       C1056   1.490       .  S
C718        C722   1.558       .  S
C718        C720   1.551   1_556  S
C718        H724   1.109       .  S
C719        H725   1.085       .  S
C720        C780   1.500       .  S
C722        C792   1.493       .  S
C727        C728   1.540       .  S
C727        C733   1.539   1_556  S
C727        C731   1.537       .  S
C727        C768   1.538       .  S
C728        H735   1.086       .  S
C729        C730   1.538       .  S
C729       C1020   1.485       .  S
C730        C734   1.550       .  S
C730        C732   1.550       .  S
C730        H736   1.109       .  S
C731        H737   1.084       .  S
C732        C777   1.500       .  S
C734        C756   1.490       .  S
O739        V747   1.907       .  S
O739        C749   1.267       .  A
O740        V747   1.906       .  S
O740        C750   1.265       .  A
O741        V747   1.895       .  S
O741        C751   1.264       .  A
O742        V747   1.894       .  S
O742        C752   1.263       .  A
O743        V748   1.888       .  S
O743        C752   1.260       .  A
O744        V748   1.886       .  S
O744        C751   1.261       .  A
O745        V748   1.911       .  S
O745        C750   1.269       .  A
O746        V748   1.915       .  S
O746        C749   1.268       .  A
V747        V748   2.086       .  T
C749        C753   1.503       .  S
C750        C873   1.497       .  S
C751        C888   1.469       .  S
C752        C765   1.456       .  S
C753        C754   1.408       .  A
C753        C758   1.421       .  A
C754        C755   1.401       .  A
C754        H763   1.083       .  S
C755        C756   1.411       .  A
C755        S759   1.803       .  S
C756        C757   1.404       .  A
C757        C758   1.414       .  A
C757        H764   1.082       .  S
C758        S760   1.807       .  S
S759        H762   1.404       .  S
S760        H761   1.407       .  S
C765        C766   1.392       .  A
C765        C770   1.403       .  A
C766        C767   1.398       .  A
C766        H775   1.083       .  S
C767        C768   1.427       .  A
C767        S771   1.808       .  S
C768        C769   1.415       .  A
C769        C770   1.395       .  A
C769        H776   1.072       .  S
C770        S772   1.806       .  S
S771        H774   1.407       .  S
S772        H773   1.404       .  S
C777        C778   1.399       .  A
C778        C779   1.397       .  A
C778        H787   1.082       .  S
C779        S783   1.799       .  S
C780        C781   1.400   1_554  A
C781        C782   1.401       .  A
C781        H788   1.083       .  S
C782        S784   1.795       .  S
S783        H786   1.402       .  S
S784        H785   1.407       .  S
C789        C790   1.412       .  A
C789        C794   1.421       .  A
C790        C791   1.407       .  A
C790        H799   1.083       .  S
C791        C792   1.412       .  A
C791        S795   1.803       .  S
C792        C793   1.404       .  A
C793        C794   1.405       .  A
C793        H800   1.082       .  S
C794        S796   1.801       .  S
S795        H798   1.404       .  S
S796        H797   1.405       .  S
C801        C802   1.394       .  A
C801        C806   1.403       .  A
C802        C803   1.401       .  A
C802        H811   1.083       .  S
C803        C804   1.428       .  A
C803        S807   1.809       .  S
C804        C805   1.414       .  A
C805        C806   1.394       .  A
C805        H812   1.077       .  S
C806        S808   1.804       .  S
S807        H810   1.406       .  S
S808        H809   1.404       .  S
C813        C814   1.401       .  A
C813        C818   1.418       .  A
C814        C815   1.403       .  A
C814        H823   1.080       .  S
C815        C816   1.419       .  A
C815        S819   1.797       .  S
C816        C817   1.405       .  A
C817        C818   1.398       .  A
C817        H824   1.084       .  S
C818        S820   1.809       .  S
S819        H822   1.397       .  S
S820        H821   1.396       .  S
C825        C826   1.409       .  A
C825        C830   1.425       .  A
C826        C827   1.395       .  A
C826        H835   1.075       .  S
C827        C828   1.412       .  A
C827        S831   1.798       .  S
C828        C829   1.399       .  A
C829        C830   1.399       .  A
C829        H836   1.082       .  S
C830        S832   1.810       .  S
S831        H834   1.400       .  S
S832        H833   1.406       .  S
C837        C842   1.418       .  A
C838        C839   1.395       .  A
C838        H847   1.082       .  S
C839        C840   1.410       .  A
C839        S843   1.796       .  S
C841        C842   1.399       .  A
C841        H848   1.081       .  S
C842        S844   1.801       .  S
S843        H846   1.399       .  S
S844        H845   1.391       .  S
C849        C850   1.399       .  A
C849        C854   1.407       .  A
C850        C851   1.403       .  A
C850        H859   1.081       .  S
C851        C852   1.422       .  A
C851        S855   1.808       .  S
C852        C853   1.413       .  A
C853        C854   1.412       .  A
C853        H860   1.082       .  S
C854        S856   1.805       .  S
S855        H858   1.408       .  S
S856        H857   1.407       .  S
C861        C862   1.411       .  A
C861        C866   1.426       .  A
C862        C863   1.393       .  A
C862        H871   1.076       .  S
C863        C864   1.404       .  A
C863        S867   1.802       .  S
C864        C865   1.396       .  A
C865        C866   1.402       .  A
C865        H872   1.083       .  S
C866        S868   1.812       .  S
S867        H870   1.405       .  S
S868        H869   1.406       .  S
C873        C874   1.404       .  A
C873        C878   1.421       .  A
C874        C875   1.400       .  A
C874        H883   1.083       .  S
C875        C876   1.417       .  A
C875        S879   1.806       .  S
C876        C877   1.402       .  A
C877        C878   1.409       .  A
C877        H884   1.084       .  S
C878        S880   1.801       .  S
S879        H882   1.403       .  S
S880        H881   1.408       .  S
C885        C886   1.410       .  A
C885        C890   1.426       .  A
C886        C887   1.393       .  A
C886        H895   1.074       .  S
C887        C888   1.409       .  A
C887        S891   1.805       .  S
C888        C889   1.398       .  A
C889        C890   1.399       .  A
C889        H896   1.083       .  S
C890        S892   1.813       .  S
S891        H894   1.408       .  S
C897        C898   1.399       .  A
C898        C899   1.399       .  A
C898        H907   1.081       .  S
C899        S903   1.804       .  S
C900        C901   1.397   1_554  A
C901        C902   1.396       .  A
C901        H908   1.083       .  S
C902        S904   1.806       .  S
S903        H906   1.404       .  S
S904        H905   1.402       .  S
C909        C910   1.406       .  A
C909        C914   1.413       .  A
C910        C911   1.403       .  A
C910        H919   1.084       .  S
C911        C912   1.418       .  A
C911        S915   1.801       .  S
C912        C913   1.410       .  A
C913        C914   1.408       .  A
C913        H920   1.084       .  S
C914        S916   1.799       .  S
S915        H918   1.408       .  S
S916        H917   1.405       .  S
C921        C922   1.402       .  A
C921        C926   1.407       .  A
C922        C923   1.403       .  A
C922        H931   1.083       .  S
C923        C924   1.422       .  A
C923        S927   1.812       .  S
C924        C925   1.413       .  A
C925        C926   1.392       .  A
C925        H932   1.076       .  S
C926        S928   1.806       .  S
S927        H930   1.406       .  S
S928        H929   1.408       .  S
C933        C934   1.407       .  A
C933        C938   1.420       .  A
C934        C935   1.400       .  A
C934        H943   1.084       .  S
C935        C936   1.412       .  A
C935        S939   1.802       .  S
C936        C937   1.403       .  A
C937        C938   1.413       .  A
C937        H944   1.083       .  S
C938        S940   1.806       .  S
S939        H942   1.402       .  S
S940        H941   1.407       .  S
C945        C946   1.411       .  A
C945        C950   1.425       .  A
C946        C947   1.396       .  A
C946        H955   1.073       .  S
C947        C948   1.410       .  A
C947        S951   1.803       .  S
C948        C949   1.399       .  A
C949        C950   1.399       .  A
C949        H956   1.082       .  S
C950        S952   1.813       .  S
S951        H954   1.407       .  S
S952        H953   1.406       .  S
C957        C958   1.401   1_554  A
C958        C959   1.398       .  A
C958        H967   1.080       .  S
C959        S963   1.808       .  S
C960        C961   1.398       .  A
C961        C962   1.405       .  A
C961        H968   1.082       .  S
C962        S964   1.812       .  S
S963        H966   1.407       .  S
S964        H965   1.406       .  S
C969        C970   1.403       .  A
C969        C974   1.418       .  A
C970        C971   1.409       .  A
C970        H979   1.084       .  S
C971        C972   1.420       .  A
C971        S975   1.801       .  S
C972        C973   1.403       .  A
C973        C974   1.398       .  A
C973        H980   1.084       .  S
C974        S976   1.807       .  S
S975        H978   1.408       .  S
S976        H977   1.402       .  S
C981        C982   1.414       .  A
C981        C986   1.427       .  A
C982        C983   1.393       .  A
C982        H991   1.078       .  S
C983        C984   1.402       .  A
C983        S987   1.803       .  S
C984        C985   1.394       .  A
C985        C986   1.400       .  A
C985        H992   1.083       .  S
C986        S988   1.809       .  S
S987        H990   1.405       .  S
S988        H989   1.407       .  S
C993        C994   1.404       .  A
C994        C995   1.397       .  A
C994       H1003   1.084       .  S
C995        S999   1.801       .  S
C996        C997   1.401       .  A
C997        C998   1.405       .  A
C997       H1004   1.084       .  S
C998       S1000   1.799       .  S
S999       H1002   1.399       .  S
S1000      H1001   1.407       .  S
C1005      C1010   1.409       .  A
C1006      C1007   1.404       .  A
C1006      H1015   1.083       .  S
C1007      C1008   1.417       .  A
C1007      S1011   1.799       .  S
C1009      C1010   1.395       .  A
C1009      H1016   1.084       .  S
C1010      S1012   1.798   1_545  S
S1011      H1014   1.406       .  S
S1012      H1013   1.405   1_556  S
C1017      C1022   1.411       .  A
C1018      C1019   1.401       .  A
C1018      H1027   1.085       .  S
C1019      C1020   1.412       .  A
C1019      S1023   1.804       .  S
C1021      C1022   1.404       .  A
C1021      H1028   1.084       .  S
C1022      S1024   1.805   1_554  S
S1023      H1026   1.405       .  S
S1024      H1025   1.405   1_556  S
C1029      C1030   1.406       .  A
C1030      C1031   1.405       .  A
C1030      H1039   1.084       .  S
C1031      C1032   1.414       .  A
C1031      S1035   1.802       .  S
C1033      C1034   1.400       .  A
C1033      H1040   1.084       .  S
C1034      S1036   1.799       .  S
S1035      H1038   1.408       .  S
S1036      H1037   1.406       .  S
C1041      C1046   1.414   1_554  A
C1042      C1043   1.405       .  A
C1042      H1051   1.084       .  S
C1043      C1044   1.410       .  A
C1043      S1047   1.801       .  S
C1045      C1046   1.397       .  A
C1045      H1052   1.082       .  S
C1046      S1048   1.803       .  S
S1047      H1050   1.405       .  S
S1048      H1049   1.408       .  S
C1053      C1058   1.415       .  A
C1054      C1055   1.401       .  A
C1054      H1063   1.083       .  S
C1055      C1056   1.408       .  A
C1055      S1059   1.798       .  S
C1057      C1058   1.401       .  A
C1057      H1064   1.081       .  S
C1058      S1060   1.801       .  S
S1059      H1062   1.404       .  S
S1060      H1061   1.408       .  S
C1065      C1070   1.409   1_554  A
C1066      C1067   1.403       .  A
C1066      H1075   1.081       .  S
C1067      C1068   1.416       .  A
C1067      S1071   1.809       .  S
C1069      C1070   1.405       .  A
C1069      H1076   1.082       .  S
C1070      S1072   1.807       .  S
S1071      H1074   1.406       .  S
S1072      H1073   1.406       .  S
C1077      C1082   1.413       .  A
C1078      C1079   1.404       .  A
C1078      H1087   1.082       .  S
C1079      C1080   1.408       .  A
C1079      S1083   1.805       .  S
C1081      C1082   1.401       .  A
C1081      H1088   1.084       .  S
C1082      S1084   1.802       .  S
S1083      H1086   1.407       .  S
S1084      H1085   1.408       .  S
