geometry optimzed in LAMMPS
_audit_creation_date              2020-12-01 
_audit_creation_method            'lammps2cif' 
_symmetry_space_group_name_H-M    'P1' 
_symmetry_Int_Tables_number       1 
_symmetry_cell_setting            triclinic 
loop_ 
_symmetry_equiv_pos_as_xyz 
  x,y,z 
_cell_length_a                    38.19702083 
_cell_length_b                    38.162722589322534 
_cell_length_c                    36.39428533035603 
_cell_angle_alpha                 90.11318440699938 
_cell_angle_beta                  89.96331096090523 
_cell_angle_gamma                 120.00122030834069 
loop_ 
_atom_site_label 
_atom_site_type_symbol 
_atom_site_fract_x 
_atom_site_fract_y 
_atom_site_fract_z 
_atom_site_charge 
C1          C  0.51794076  0.97318557  0.02364692     0.03100
C2          C  0.47935194  0.96942844  0.01862256     0.03100
C3          C  0.47392014  0.99246023  0.99169821    -0.17400
C4          C  0.50588204  0.01946130  0.96919263     0.03100
C5          C  0.54450436  0.02317573  0.97415542     0.03100
C6          C  0.54983656  0.99957956  0.00066898    -0.17400
H7          H  0.57971948  0.00355943  0.00460990     0.05200
H8          H  0.44399361  0.98833628  0.98786116     0.05200
O9          O  0.50127486  0.78558096  0.21937407    -0.70900
O10         O  0.49291785  0.70309868  0.28269381    -0.71100
O11         O  0.49626857  0.77430814  0.29199147    -0.71000
O12         O  0.49775854  0.71401259  0.20990875    -0.71000
O13         O  0.56214779  0.73790297  0.21803669    -0.71000
O14         O  0.56185998  0.81019308  0.29052687    -0.71000
O15         O  0.55777885  0.73778668  0.29207961    -0.70900
O16         O  0.56633441  0.81065876  0.21638824    -0.71100
V17         V  0.49824693  0.74480558  0.25099293     1.35200
V18         V  0.56101413  0.77364674  0.25415379     1.35200
C19         C  0.53509174  0.81155826  0.20634274     0.78300
C20         C  0.52378007  0.70731020  0.29937927     0.78400
C21         C  0.52867925  0.80335658  0.30451209     0.78200
C22         C  0.52986731  0.71432475  0.20100140     0.78200
O23         O  0.42855170  0.24426321  0.71817495    -0.70900
O24         O  0.44012083  0.17548189  0.78636413    -0.71100
O25         O  0.43172715  0.24065133  0.79207151    -0.71000
O26         O  0.43685845  0.17867325  0.71275540    -0.71000
O27         O  0.50141229  0.22048105  0.70761848    -0.71000
O28         O  0.49742244  0.27645830  0.79228890    -0.71000
O29         O  0.50543816  0.21104533  0.78035728    -0.70900
O30         O  0.49344429  0.28567430  0.72029961    -0.71100
V31         V  0.43551910  0.21046832  0.75225210     1.35200
V32         V  0.49823359  0.24761260  0.75021527     1.35200
C33         C  0.45900867  0.27726482  0.70855046     0.78300
C34         C  0.47474769  0.18122887  0.79443682     0.78400
C35         C  0.46388305  0.26896373  0.80569079     0.78200
C36         C  0.46984766  0.18947387  0.69629134     0.78200
O37         O  0.74822239  0.19080530  0.78257477    -0.70900
O38         O  0.81611090  0.26553857  0.70977609    -0.71100
O39         O  0.81700205  0.26264583  0.78325221    -0.71000
O40         O  0.74761533  0.19363241  0.70861563    -0.71000
O41         O  0.70959955  0.22072319  0.71500638    -0.71000
O42         O  0.78428373  0.29572404  0.78346213    -0.71000
O43         O  0.77788061  0.29274899  0.70965231    -0.70900
O44         O  0.71666679  0.22472592  0.78807679    -0.71100
V45         V  0.78157350  0.22868783  0.74609324     1.35200
V46         V  0.74783445  0.25797307  0.74884765     1.35200
C47         C  0.72170565  0.19603625  0.79846603     0.78300
C48         C  0.80796057  0.29137467  0.69691961     0.78400
C49         C  0.81247080  0.29094761  0.79589912     0.78200
C50         C  0.71615805  0.19467089  0.70001831     0.78200
O51         O  0.22105266  0.72091481  0.28637968    -0.70900
O52         O  0.29109962  0.78024137  0.20797423    -0.71100
O53         O  0.29414060  0.78862713  0.28104820    -0.71000
O54         O  0.21887427  0.71334893  0.21378421    -0.71000
O55         O  0.19353184  0.75265410  0.20541899    -0.71000
O56         O  0.26122953  0.82152129  0.28129174    -0.71000
O57         O  0.26584455  0.82020178  0.20756412    -0.70900
O58         O  0.18878711  0.75398795  0.27945185    -0.71100
V59         V  0.25582675  0.75155265  0.24735995     1.35200
V60         V  0.22785620  0.78644574  0.24353095     1.35200
C61         C  0.19209361  0.72630301  0.29522258     0.78300
C62         C  0.29054499  0.81049480  0.19462318     0.78400
C63         C  0.29010491  0.81748436  0.29297722     0.78200
C64         C  0.19420593  0.72076480  0.19746037     0.78200
C65         C  0.98780396  0.51583392  0.96521120     0.03100
C66         C  0.98451052  0.47715731  0.96699970     0.03100
C67         C  0.00911258  0.47039598  0.99096462    -0.17400
C68         C  0.03531515  0.50046124  0.01531667     0.03100
C69         C  0.03588198  0.53793741  0.01636337     0.03100
C70         C  0.01279875  0.54544559  0.99071239    -0.17400
H71         H  0.01408108  0.57440684  0.99066869     0.05200
H72         H  0.00744060  0.44117386  0.99094849     0.05200
C73         C  0.97321908  0.47979380  0.52101217     0.03100
C74         C  0.97331791  0.51690478  0.51862601     0.03100
C75         C  0.99875920  0.54635014  0.49330033    -0.17400
C76         C  0.02336454  0.53927139  0.46936570     0.03100
C77         C  0.02431112  0.50265974  0.47255375     0.03100
C78         C  0.99910299  0.47342821  0.49813427    -0.17400
H79         H  0.99960385  0.44534837  0.50012347     0.05200
H80         H  0.99822872  0.57443465  0.49130901     0.05200
O81         O  0.21253455  0.50214318  0.28183534    -0.70900
O82         O  0.28557881  0.49073831  0.21947345    -0.71100
O83         O  0.22143924  0.50030528  0.20833552    -0.71000
O84         O  0.27591464  0.49267442  0.29218405    -0.71000
O85         O  0.24056623  0.42701468  0.28947342    -0.71000
O86         O  0.17877474  0.43574062  0.21144038    -0.71000
O87         O  0.24370310  0.42605312  0.21514602    -0.70900
O88         O  0.17552504  0.43667015  0.28543633    -0.71100
V89         V  0.24806294  0.49519295  0.25030126     1.35200
V90         V  0.21030911  0.43250212  0.25035157     1.35200
C91         C  0.18277496  0.47134398  0.29574212     0.78300
C92         C  0.27685440  0.45672114  0.20619649     0.78400
C93         C  0.19038660  0.46943765  0.19598241     0.78200
C94         C  0.26778816  0.45872614  0.30495525     0.78200
O95         O  0.74021442  0.55780550  0.78826256    -0.70900
O96         O  0.81308598  0.56723851  0.71190697    -0.71100
O97         O  0.73913365  0.56050170  0.71423198    -0.71000
O98         O  0.81417178  0.56501675  0.78591923    -0.71000
O99         O  0.79089539  0.50062544  0.77821858    -0.71000
O100        O  0.70750251  0.49482325  0.71661471    -0.71000
O101        O  0.77969656  0.50183399  0.70556158    -0.70900
O102        O  0.71754143  0.49305401  0.79002126    -0.71100
V103        V  0.77613950  0.56152470  0.75003413     1.35200
V104        V  0.74937176  0.49877166  0.74781344     1.35200
C105        C  0.71716362  0.52372203  0.80276851     0.78300
C106        C  0.80771939  0.53588671  0.69501513     0.78400
C107        C  0.71023780  0.52679888  0.70352375     0.78200
C108        C  0.81640060  0.53376574  0.79299475     0.78200
C109        C  0.50274064  0.51883486  0.03141268     0.03100
C110        C  0.46644973  0.48078194  0.03243417     0.03100
C111        C  0.46147526  0.45039811  0.00769973    -0.17400
C112        C  0.49181325  0.45680746  0.98246918     0.03100
C113        C  0.52914900  0.49383006  0.98301238     0.03100
C114        C  0.53392968  0.52442509  0.00746126    -0.17400
H115        H  0.56202713  0.55311013  0.00756493     0.05200
H116        H  0.43356416  0.42154309  0.00777307     0.05200
C117        C  0.48720963  0.52234928  0.48442590     0.03100
C118        C  0.44839514  0.48737966  0.48855411     0.03100
C119        C  0.44187134  0.45966932  0.51653140    -0.17400
C120        C  0.47263108  0.46600294  0.54119086     0.03100
C121        C  0.51190951  0.49998214  0.53654761     0.03100
C122        C  0.51834075  0.52808453  0.50882179    -0.17400
H123        H  0.54853558  0.55360069  0.50526382     0.05200
H124        H  0.41203098  0.43334422  0.51980285     0.05200
C125        C  0.50820158  0.97330792  0.47648900     0.03100
C126        C  0.47338333  0.97731831  0.47241708     0.03100
C127        C  0.46824379  0.00381548  0.49557357    -0.17400
C128        C  0.49748104  0.02740834  0.52163493     0.03100
C129        C  0.53223819  0.02348905  0.52578372     0.03100
C130        C  0.53731077  0.99675336  0.50290760    -0.17400
H131        H  0.56342108  0.99302498  0.50656493     0.05200
H132        H  0.44217014  0.00766556  0.49224057     0.05200
C133        C  0.65713652  0.53340892  0.87086960     0.30600
C134        C  0.63974800  0.55252163  0.89071331    -0.35700
C135        C  0.61097464  0.52882657  0.91736437     0.16600
C136        C  0.60003503  0.48906976  0.92401794     0.22400
C137        C  0.61732057  0.46991842  0.90414801    -0.33800
C138        C  0.64604601  0.49358462  0.87749337     0.16500
O139        O  0.68399485  0.54956637  0.84414952    -0.25800
C140        C  0.69009409  0.51964639  0.83342725     0.06300
C141        C  0.66724899  0.48411187  0.85321644    -0.30700
O142        O  0.57118041  0.47202147  0.94888702    -0.22600
C143        C  0.56322373  0.50110863  0.95827756    -0.02600
C144        C  0.58745315  0.53727716  0.93973096    -0.17000
H145        H  0.64762836  0.58349216  0.88534983     0.21000
H146        H  0.60842338  0.43853293  0.90867246     0.20000
H147        H  0.66611823  0.45537483  0.84987763     0.19300
H148        H  0.58637689  0.56505130  0.94111463     0.15200
C149        C  0.63609456  0.50071304  0.63528523     0.30600
C150        C  0.60590034  0.47487841  0.61061187    -0.35700
C151        C  0.58709518  0.49211627  0.59036087     0.16600
C152        C  0.59697094  0.53199628  0.59417195     0.22400
C153        C  0.62793507  0.55817740  0.61826472    -0.33800
C154        C  0.64691912  0.54092893  0.63851195     0.16500
O155        O  0.65644135  0.49041264  0.65788842    -0.25800
C156        C  0.68098774  0.52451445  0.67574198     0.06300
C157        C  0.67653577  0.55702635  0.66468149    -0.30700
O158        O  0.57293916  0.54063345  0.57481991    -0.22600
C159        C  0.54720982  0.50570039  0.55859954    -0.02600
C160        C  0.55548383  0.47486896  0.56652062    -0.17000
H161        H  0.59691456  0.44321566  0.60809532     0.21000
H162        H  0.63585004  0.58945208  0.62178704     0.19400
H163        H  0.69244031  0.58783512  0.67479962     0.19300
H164        H  0.53905586  0.44361256  0.55762678     0.15200
C165        C  0.40856493  0.47368245  0.11009558     0.30600
C166        C  0.40252571  0.48422345  0.14535404    -0.35700
C167        C  0.36231354  0.46837605  0.15616797     0.16600
C168        C  0.32990674  0.44321218  0.13414140     0.22400
C169        C  0.33599100  0.43262770  0.09859167    -0.33800
C170        C  0.37651989  0.44909144  0.08751361     0.16500
O171        O  0.44382630  0.48704951  0.09409831    -0.25800
C172        C  0.43471470  0.47146138  0.06045960     0.06300
C173        C  0.39313490  0.44718268  0.05484745    -0.30700
O174        O  0.29486425  0.43381274  0.14944736    -0.22600
C175        C  0.30539496  0.45367104  0.18134826    -0.02600
C176        C  0.34683003  0.47559143  0.18688313    -0.17000
H177        H  0.42754599  0.50455305  0.16272069     0.21000
H178        H  0.31099398  0.41399740  0.08048246     0.19400
H179        H  0.37746573  0.43162840  0.03000375     0.19300
H180        H  0.36316533  0.49525587  0.20970632     0.15200
C181        C  0.32508331  0.47810069  0.38476047     0.30600
C182        C  0.34886776  0.50215124  0.41395383    -0.35700
C183        C  0.37063162  0.48753489  0.43313172     0.16600
C184        C  0.36933684  0.45175074  0.42411925     0.22400
C185        C  0.34455679  0.42702688  0.39544050    -0.33800
C186        C  0.32251136  0.44159985  0.37628826     0.16500
O187        O  0.30544429  0.48807028  0.36125205    -0.25800
C188        C  0.28947350  0.45739839  0.33762205     0.06300
C189        C  0.29861904  0.42724021  0.34571709    -0.30700
O190        O  0.39546395  0.44615821  0.44330167    -0.22600
C191        C  0.41369317  0.47886689  0.46466771    -0.02600
C192        C  0.39873164  0.50512937  0.46014188    -0.17000
H193        H  0.35163263  0.53116763  0.42021306     0.21000
H194        H  0.34389278  0.39933543  0.38759017     0.19400
H195        H  0.29092905  0.40015538  0.33011492     0.19300
H196        H  0.40914988  0.53426878  0.47306410     0.15200
C197        C  0.11233596  0.46179225  0.36242760     0.30600
C198        C  0.07628809  0.44248397  0.38271481    -0.35700
C199        C  0.07164566  0.46609939  0.40976652     0.16600
C200        C  0.10065111  0.50580489  0.41660829     0.22400
C201        C  0.13666435  0.52506300  0.39641573    -0.33800
C202        C  0.14103297  0.50166527  0.36906612     0.16500
O203        O  0.12278723  0.44573509  0.33543485    -0.25800
C204        C  0.15835541  0.47593778  0.32441428     0.06300
C205        C  0.17114361  0.51144805  0.34428890    -0.30700
O206        O  0.08883522  0.52317238  0.44108228    -0.22600
C207        C  0.05156983  0.49444331  0.44982318    -0.02600
C208        C  0.03951422  0.45803731  0.43160187    -0.17000
H209        H  0.05307325  0.41158570  0.37716629     0.21000
H210        H  0.15910224  0.55649174  0.40091195     0.19400
H211        H  0.19893901  0.54005087  0.34131017     0.19300
H212        H  0.01028483  0.43068314  0.43232783     0.15200
C213        C  0.89665893  0.51992502  0.56914087     0.30600
C214        C  0.85680805  0.50576142  0.58073583    -0.35700
C215        C  0.85226774  0.52239873  0.61352257     0.16600
C216        C  0.88463386  0.55156086  0.63329914     0.22400
C217        C  0.92456857  0.56563652  0.62172926    -0.33800
C218        C  0.92914884  0.54853821  0.58916648     0.16500
O219        O  0.90781515  0.50630381  0.54078211    -0.25800
C220        C  0.94794641  0.52607559  0.54287099     0.06300
C221        C  0.96297308  0.55303964  0.57218139    -0.30700
O222        O  0.87332465  0.56162337  0.66399353    -0.22600
C223        C  0.83327981  0.53824783  0.66393639    -0.02600
C224        C  0.81856062  0.51315754  0.63334001    -0.17000
H225        H  0.83118300  0.48232552  0.56593485     0.21000
H226        H  0.95026302  0.58739083  0.63762423     0.19400
H227        H  0.99412970  0.57159655  0.58072187     0.19300
H228        H  0.78758647  0.49060681  0.62718570     0.15200
C229        C  0.11133106  0.50161804  0.07088096     0.30600
C230        C  0.14869943  0.51963405  0.08911772    -0.35700
C231        C  0.15242324  0.49688529  0.11747939     0.16600
C232        C  0.12174663  0.45872932  0.12689702     0.22400
C233        C  0.08447124  0.44057007  0.10843535    -0.33800
C234        C  0.08054487  0.46356980  0.08038652     0.16500
O235        O  0.10016681  0.51893377  0.04577216    -0.25800
C236        C  0.06156546  0.49184390  0.03928415     0.06300
C237        C  0.04792403  0.45654894  0.05970436    -0.30700
O238        O  0.13118378  0.44366104  0.15533390    -0.22600
C239        C  0.16824183  0.47269384  0.16440205    -0.02600
C240        C  0.18300637  0.50647992  0.14177872    -0.17000
H241        H  0.17261439  0.54991834  0.08261950     0.21000
H242        H  0.05978244  0.41119339  0.11626872     0.19400
H243        H  0.01770611  0.43059876  0.06074881     0.19300
H244        H  0.21177095  0.53430641  0.14346375     0.15200
C245        C  0.93577132  0.52014620  0.88687906     0.30600
C246        C  0.91507935  0.50528030  0.85361087    -0.35700
C247        C  0.89102205  0.52138093  0.84221309     0.16600
C248        C  0.88831083  0.55104286  0.86161241     0.22400
C249        C  0.90919932  0.56603063  0.89506063    -0.33800
C250        C  0.93250728  0.54900856  0.90702350     0.16500
O251        O  0.95690283  0.50647090  0.90385579    -0.25800
C252        C  0.96677917  0.52582150  0.93594718     0.06300
C253        C  0.95286865  0.55331663  0.93920065    -0.30700
O254        O  0.86253739  0.56037722  0.84645329    -0.22600
C255        C  0.84813822  0.53577177  0.81744029    -0.02600
C256        C  0.86483797  0.51092863  0.81351122    -0.17000
H257        H  0.91619101  0.48138059  0.83852108     0.21000
H258        H  0.90611675  0.58809683  0.91134325     0.19400
H259        H  0.95530980  0.57196261  0.96258690     0.19300
H260        H  0.85803647  0.48794212  0.79285417     0.15200
C261        C  0.34292068  0.88364087  0.36469716     0.30600
C262        C  0.34805200  0.90385512  0.39824060    -0.35700
C263        C  0.38773536  0.92486312  0.41176375     0.16600
C264        C  0.42001029  0.92666630  0.39303673     0.22400
C265        C  0.41490699  0.90636752  0.35977223    -0.33800
C266        C  0.37527745  0.88453980  0.34680764     0.16500
O267        O  0.30837167  0.86051062  0.34772632    -0.25800
C268        C  0.31900286  0.84606606  0.31920919     0.06300
C269        C  0.36007687  0.85978346  0.31727504    -0.30700
O270        O  0.45410367  0.94643836  0.41116588    -0.22600
C271        C  0.44375049  0.95657352  0.44255101    -0.02600
C272        C  0.40274134  0.94441822  0.44425616    -0.17000
H273        H  0.32280676  0.90218078  0.41326323     0.21000
H274        H  0.43988709  0.90636199  0.34573081     0.19400
H275        H  0.37622080  0.85234126  0.29713758     0.19300
H276        H  0.38608805  0.94778923  0.46673174     0.15200
C277        C  0.08791683  0.59200616  0.09503224     0.30600
C278        C  0.10629157  0.59668884  0.12922557    -0.35700
C279        C  0.12901635  0.63640051  0.14189209     0.16600
C280        C  0.13278763  0.66931374  0.12269259     0.22400
C281        C  0.11469210  0.66459254  0.08813479    -0.33800
C282        C  0.09249540  0.62473856  0.07510151     0.16500
O283        O  0.06671774  0.55765367  0.07753518    -0.25800
C284        C  0.05829200  0.56819767  0.04541771     0.06300
C285        C  0.07323716  0.60972649  0.04252477    -0.30700
O286        O  0.15566011  0.70374792  0.14000397    -0.22600
C287        C  0.16687258  0.69240636  0.17020832    -0.02600
C288        C  0.15150447  0.65104029  0.17274195    -0.17000
H289        H  0.10375925  0.57119762  0.14449174     0.21000
H290        H  0.11828369  0.69015721  0.07229132     0.19400
H291        H  0.07147757  0.62662132  0.01945818     0.19300
H292        H  0.15629787  0.63430626  0.19423843     0.15200
C293        C  0.08275643  0.62508430  0.41436745     0.30600
C294        C  0.10875701  0.66631910  0.40653858    -0.35700
C295        C  0.12622544  0.67512031  0.37128289     0.16600
C296        C  0.11886684  0.64526558  0.34587470     0.22400
C297        C  0.09206021  0.60442033  0.35328569    -0.33800
C298        C  0.07439487  0.59577110  0.38816710     0.16500
O299        O  0.06535657  0.60941950  0.44624450    -0.25800
C300        C  0.04581905  0.56958191  0.44022914     0.06300
C301        C  0.04939096  0.55966802  0.40414167    -0.30700
O302        O  0.14071399  0.65954467  0.31590009    -0.22600
C303        C  0.16185376  0.69917488  0.32168076    -0.02600
C304        C  0.15397108  0.71086079  0.35551465    -0.17000
H305        H  0.11585322  0.68971298  0.42682656     0.21000
H306        H  0.08638603  0.58084197  0.33361331     0.19400
H307        H  0.03662341  0.52998484  0.39172059     0.19300
H308        H  0.16803019  0.74091375  0.36734247     0.15200
C309        C  0.66395764  0.12748050  0.62856091     0.30600
C310        C  0.65905194  0.10708240  0.59514648    -0.35700
C311        C  0.61902430  0.08241899  0.58338062     0.16600
C312        C  0.58630763  0.07767748  0.60350964     0.22400
C313        C  0.59117688  0.09823201  0.63662466    -0.33800
C314        C  0.63105258  0.12347660  0.64794671     0.16500
O315        O  0.69854699  0.15287724  0.64443290    -0.25800
C316        C  0.68738777  0.16568770  0.67379829     0.06300
C317        C  0.64588023  0.14861480  0.67733973    -0.30700
O318        O  0.55177079  0.05486832  0.58677426    -0.22600
C319        C  0.56221239  0.04543412  0.55504295    -0.02600
C320        C  0.60376980  0.06128666  0.55158346    -0.17000
H321        H  0.68458937  0.11097369  0.57906279     0.21000
H322        H  0.56566969  0.09568640  0.65187257     0.19400
H323        H  0.62917637  0.15375766  0.69866387     0.19300
H324        H  0.62038147  0.05944419  0.52827041     0.15200
C325        C  0.88131235  0.35238539  0.63242479     0.30600
C326        C  0.91847279  0.36951321  0.61380279    -0.35700
C327        C  0.92521416  0.39936096  0.58778650     0.16600
C328        C  0.89725706  0.41126460  0.58058639     0.22400
C329        C  0.86021693  0.39420715  0.59910424    -0.33800
C330        C  0.85359037  0.36465839  0.62520705     0.16500
O331        O  0.86888333  0.32460753  0.65836985    -0.25800
C332        C  0.83291772  0.31934657  0.66791261     0.06300
C333        C  0.82189097  0.34347828  0.64823288    -0.30700
O334        O  0.91007895  0.44032559  0.55607010    -0.22600
C335        C  0.94692921  0.44767296  0.54740401    -0.02600
C336        C  0.95785122  0.42272230  0.56614954    -0.17000
H337        H  0.94072878  0.36061119  0.61954550     0.21000
H338        H  0.83838738  0.40382544  0.59394060     0.19400
H339        H  0.79457739  0.34525872  0.65070685     0.19300
H340        H  0.98611750  0.42264331  0.56484284     0.15200
C341        C  0.85918999  0.35698434  0.86918137     0.30600
C342        C  0.86305082  0.38375903  0.89725875    -0.35700
C343        C  0.90017819  0.40261782  0.91559663     0.16600
C344        C  0.93154232  0.39593541  0.90676733     0.22400
C345        C  0.92724669  0.36821318  0.87939873    -0.33800
C346        C  0.88998233  0.34915005  0.86115988     0.16500
O347        O  0.82798511  0.33784695  0.84708197    -0.25800
C348        C  0.83879977  0.31717884  0.82497107     0.06300
C349        C  0.87687269  0.32272477  0.83254246    -0.30700
O350        O  0.96502259  0.42018841  0.92469183    -0.22600
C351        C  0.95485886  0.44268981  0.94501865    -0.02600
C352        C  0.91456715  0.43221429  0.94137457    -0.17000
H353        H  0.83934184  0.39053940  0.90345631     0.21000
H354        H  0.95173596  0.36306678  0.87187703     0.19400
H355        H  0.89285803  0.30995454  0.81838739     0.19300
H356        H  0.89908910  0.44643387  0.95392624     0.15200
C357        C  0.49380839  0.14857200  0.62069637     0.30600
C358        C  0.51841942  0.14658106  0.59309968    -0.35700
C359        C  0.50241906  0.10964254  0.57424438     0.16600
C360        C  0.46493406  0.07685993  0.58213240     0.22400
C361        C  0.44002555  0.07913273  0.60918172    -0.33800
C362        C  0.45591972  0.11607994  0.62790019     0.16500
O363        O  0.50369521  0.17909612  0.64341434    -0.25800
C364        C  0.47151807  0.16600988  0.66512000     0.06300
C365        C  0.44081174  0.12715924  0.65661262    -0.30700
O366        O  0.45757745  0.04416948  0.56361124    -0.22600
C367        C  0.49083967  0.05609401  0.54372350    -0.02600
C368        C  0.51937447  0.09681802  0.54853714    -0.17000
H369        H  0.54846359  0.17152643  0.58761951     0.21000
H370        H  0.41093178  0.05342616  0.61608900     0.19400
H371        H  0.41224528  0.10914526  0.67056514     0.19300
H372        H  0.54929025  0.11363969  0.53665867     0.15200
C373        C  0.46385096  0.36967913  0.92923137     0.30600
C374        C  0.45010286  0.32856660  0.92193324    -0.35700
C375        C  0.45539473  0.31931099  0.88562944     0.16600
C376        C  0.47329554  0.34868581  0.85886394     0.22400
C377        C  0.48578057  0.38917770  0.86587844    -0.33800
C378        C  0.48023200  0.39825224  0.90172764     0.16500
O379        O  0.46488600  0.38611502  0.96149357    -0.25800
C380        C  0.48241445  0.42556613  0.95416502     0.06300
C381        C  0.49133742  0.43449285  0.91723945    -0.30700
O382        O  0.47824625  0.33447256  0.82768380    -0.22600
C383        C  0.46274414  0.29532945  0.83402933    -0.02600
C384        C  0.44764871  0.28375103  0.86948182    -0.17000
H385        H  0.43741294  0.30574503  0.94317963     0.21000
H386        H  0.50008708  0.41228998  0.84504110     0.19400
H387        H  0.50549008  0.46376026  0.90394624     0.19300
H388        H  0.43452603  0.25403559  0.88180054     0.15200
C389        C  0.44394001  0.38070445  0.59647510     0.30600
C390        C  0.42988496  0.33958957  0.60316728    -0.35700
C391        C  0.44024054  0.33040507  0.63733508     0.16600
C392        C  0.46323489  0.35975127  0.66294579     0.22400
C393        C  0.47605376  0.40065564  0.65676631    -0.33800
C394        C  0.46537007  0.40975541  0.62278192     0.16500
O395        O  0.44199162  0.39655151  0.56492725    -0.25800
C396        C  0.46257223  0.43624565  0.57108773     0.06300
C397        C  0.47654147  0.44609772  0.60705599    -0.30700
O398        O  0.47268029  0.34493358  0.69148574    -0.22600
C399        C  0.45473185  0.30550682  0.68443390    -0.02600
C400        C  0.43388332  0.29459635  0.65129999    -0.17000
H401        H  0.41366583  0.31660490  0.58253359     0.21000
H402        H  0.49465708  0.42397507  0.67637522     0.19400
H403        H  0.49500836  0.47583578  0.61898499     0.19300
H404        H  0.41814350  0.26496356  0.63861617     0.15200
C405        C  0.50063121  0.89339910  0.42241943     0.30600
C406        C  0.48000341  0.85693995  0.40295570    -0.35700
C407        C  0.50298537  0.84945305  0.37751319     0.16600
C408        C  0.54364795  0.87574853  0.37169296     0.22400
C409        C  0.56434971  0.91235295  0.39124816    -0.33800
C410        C  0.54119078  0.92005489  0.41655390     0.16500
O411        O  0.48421079  0.90761698  0.44552006    -0.25800
C412        C  0.51437512  0.94423245  0.45424229     0.06300
C413        C  0.55076022  0.95332923  0.43748771    -0.30700
O414        O  0.55870180  0.86300039  0.34557716    -0.22600
C415        C  0.52708766  0.82824971  0.33457963    -0.02600
C416        C  0.49174749  0.81841935  0.35348906    -0.17000
H417        H  0.44793438  0.83641944  0.40656802     0.21000
H418        H  0.59595186  0.93381513  0.38633601     0.19400
H419        H  0.57939096  0.98133370  0.43882056     0.19300
H420        H  0.46190601  0.79241959  0.34962484     0.15200
C421        C  0.53514492  0.60165154  0.09165962     0.30600
C422        C  0.56069674  0.63060770  0.11748963    -0.35700
C423        C  0.54449970  0.65159205  0.13606106     0.16600
C424        C  0.50585044  0.64444692  0.12962557     0.22400
C425        C  0.48066308  0.61611967  0.10339211    -0.33800
C426        C  0.49687102  0.59531037  0.08482703     0.16500
O427        O  0.54281498  0.57649494  0.07307716    -0.25800
C428        C  0.50885432  0.55358208  0.05437802     0.06300
C429        C  0.47969228  0.56475691  0.05991432    -0.30700
O430        O  0.49599082  0.66581728  0.15128782    -0.22600
C431        C  0.52881305  0.68729369  0.17171828    -0.02600
C432        C  0.56007699  0.67981706  0.16344876    -0.17000
H433        H  0.59059348  0.63557549  0.12344547     0.21000
H434        H  0.45014402  0.60993232  0.09852700     0.19400
H435        H  0.44950401  0.55106279  0.04853175     0.19300
H436        H  0.58942281  0.69243953  0.17642244     0.15200
C437        C  0.48943368  0.57644871  0.40500580     0.30600
C438        C  0.47410405  0.58264745  0.37222740    -0.35700
C439        C  0.49559295  0.62166462  0.35745830     0.16600
C440        C  0.53019945  0.65233887  0.37344162     0.22400
C441        C  0.54519607  0.64620129  0.40657059    -0.33800
C442        C  0.52326019  0.60724980  0.42166426     0.16500
O443        O  0.47330991  0.54270285  0.42404561    -0.25800
C444        C  0.49628626  0.55184148  0.45396643     0.06300
C445        C  0.52819844  0.59178090  0.45369128    -0.30700
O446        O  0.54539222  0.68647282  0.35478295    -0.22600
C447        C  0.51983127  0.67751479  0.32683300    -0.02600
C448        C  0.48818534  0.63774827  0.32720614    -0.17000
H449        H  0.44693136  0.55889591  0.35950262     0.21000
H450        H  0.57168924  0.67022307  0.41989678     0.19400
H451        H  0.55097983  0.60770921  0.47449398     0.19300
H452        H  0.46333673  0.62296067  0.30799770     0.15200
C453        C  0.61670718  0.10487462  0.92308897     0.30600
C454        C  0.63172256  0.14216940  0.90542367    -0.35700
C455        C  0.65796921  0.14909194  0.87604826     0.16600
C456        C  0.66944499  0.12164084  0.86507348     0.22400
C457        C  0.65424534  0.08411665  0.88273067    -0.33800
C458        C  0.62731035  0.07684203  0.91183875     0.16500
O459        O  0.58846625  0.09066446  0.94847460    -0.25800
C460        C  0.58010239  0.05272940  0.95311089     0.06300
C461        C  0.60391121  0.04261905  0.93161985    -0.30700
O462        O  0.69381777  0.13437727  0.83635010    -0.22600
C463        C  0.69744454  0.17015897  0.82882994    -0.02600
C464        C  0.67568528  0.18071552  0.85250133    -0.17000
H465        H  0.62222977  0.16357866  0.91306268     0.21000
H466        H  0.66172318  0.06165057  0.87358208     0.19400
H467        H  0.60173806  0.01336154  0.92872703     0.19300
H468        H  0.67326192  0.20779266  0.85229182     0.15200
C469        C  0.50675142  0.07770094  0.89343475     0.30600
C470        C  0.52373749  0.10241929  0.86255268    -0.35700
C471        C  0.50258949  0.12076613  0.84879170     0.16600
C472        C  0.46671102  0.11444174  0.86387893     0.22400
C473        C  0.45012854  0.09024058  0.89519204    -0.33800
C474        C  0.47183533  0.07262886  0.90943330     0.16500
O475        O  0.52220707  0.05873144  0.91133173    -0.25800
C476        C  0.49788984  0.04218498  0.94007338     0.06300
C477        C  0.46560624  0.04966080  0.93998871    -0.30700
O478        O  0.45186893  0.13432228  0.84636570    -0.22600
C479        C  0.47894599  0.15412269  0.82017428    -0.02600
C480        C  0.51129270  0.14708268  0.82044694    -0.17000
H481        H  0.55184261  0.10754390  0.85054397     0.21000
H482        H  0.42264468  0.08599622  0.90787061     0.19400
H483        H  0.44170586  0.04079722  0.96000660     0.19300
H484        H  0.53721878  0.15940302  0.80232365     0.15200
C485        C  0.51836253  0.92222038  0.10415522     0.30600
C486        C  0.50205905  0.90159842  0.13707369    -0.35700
C487        C  0.52036209  0.88084203  0.15164966     0.16600
C488        C  0.55320105  0.88102490  0.13556556     0.22400
C489        C  0.56965046  0.90188611  0.10245836    -0.33800
C490        C  0.55057881  0.92196279  0.08732762     0.16500
O491        O  0.50381010  0.94101134  0.08471806    -0.25800
C492        C  0.52609555  0.95240599  0.05434229     0.06300
C493        C  0.55619324  0.94175451  0.05469409    -0.30700
O494        O  0.56405330  0.85770988  0.15328335    -0.22600
C495        C  0.53733515  0.84216548  0.18058642    -0.02600
C496        C  0.50957055  0.85552500  0.18085328    -0.17000
H497        H  0.47578190  0.90040868  0.14962041     0.21000
H498        H  0.59443361  0.90116550  0.08875634     0.19400
H499        H  0.57787400  0.94630940  0.03343017     0.19300
H500        H  0.48436200  0.84688223  0.19936210     0.15200
C501        C  0.40489503  0.89170211  0.07239858     0.30600
C502        C  0.38713295  0.85494182  0.09149637    -0.35700
C503        C  0.35933099  0.85034518  0.11883788     0.16600
C504        C  0.34907745  0.87955336  0.12641128     0.22400
C505        C  0.36652115  0.91615156  0.10702627    -0.33800
C506        C  0.39481997  0.92101859  0.08007562     0.16500
O507        O  0.43459787  0.90399100  0.04846840    -0.25800
C508        C  0.44394753  0.94179280  0.04100512     0.06300
C509        C  0.41974654  0.95378781  0.05941021    -0.30700
O510        O  0.32343888  0.86944494  0.15397652    -0.22600
C511        C  0.31753180  0.83349563  0.16434643    -0.02600
C512        C  0.33905704  0.82008358  0.14349789    -0.17000
H513        H  0.39570147  0.83227141  0.08648162     0.21000
H514        H  0.35965791  0.93977094  0.11345964     0.19400
H515        H  0.42215391  0.98328154  0.05944592     0.19300
H516        H  0.33978479  0.79221932  0.14628281     0.15200
loop_ 
_geom_bond_atom_site_label_1 
_geom_bond_atom_site_label_2 
_geom_bond_distance 
_geom_bond_site_symmetry_2 
_ccdc_geom_bond_type 
C1            C2   1.420       .  A
C1            C6   1.405       .  A
C1          C492   1.492       .  S
C2            C3   1.401   1_554  A
C2          C508   1.477       .  S
C3            C4   1.403   1_565  A
C3            H8   1.082       .  S
C4            C5   1.421       .  A
C4          C476   1.496       .  S
C5            C6   1.404   1_546  A
C5          C460   1.475       .  S
C6            H7   1.083   1_565  S
O9           V17   1.894       .  S
O9           C19   1.264       .  A
O10          V17   1.894       .  S
O10          C20   1.263       .  A
O11          V17   1.892       .  S
O11          C21   1.263       .  A
O12          V17   1.894       .  S
O12          C22   1.263       .  A
O13          V18   1.908       .  S
O13          C22   1.266       .  A
O14          V18   1.910       .  S
O14          C21   1.266       .  A
O15          V18   1.906       .  S
O15          C20   1.265       .  A
O16          V18   1.909       .  S
O16          C19   1.265       .  A
V17          V18   2.082       .  T
C19         C495   1.468       .  S
C20         C447   1.465       .  S
C21         C415   1.469       .  S
C22         C431   1.468       .  S
O23          V31   1.903       .  S
O23          C33   1.264       .  A
O24          V31   1.896       .  S
O24          C34   1.263       .  A
O25          V31   1.899       .  S
O25          C35   1.262       .  A
O26          V31   1.896       .  S
O26          C36   1.264       .  A
O27          V32   1.900       .  S
O27          C36   1.263       .  A
O28          V32   1.893       .  S
O28          C35   1.263       .  A
O29          V32   1.902       .  S
O29          C34   1.265       .  A
O30          V32   1.898       .  S
O30          C33   1.263       .  A
V31          V32   2.088       .  T
C33         C399   1.462       .  S
C34         C479   1.464       .  S
C35         C383   1.455       .  S
C36         C364   1.465       .  S
O37          V45   1.908       .  S
O37          C47   1.265       .  A
O38          V45   1.901       .  S
O38          C48   1.264       .  A
O39          V45   1.892       .  S
O39          C49   1.262       .  A
O40          V45   1.895       .  S
O40          C50   1.262       .  A
O41          V46   1.895       .  S
O41          C50   1.263       .  A
O42          V46   1.895       .  S
O42          C49   1.263       .  A
O43          V46   1.896       .  S
O43          C48   1.264       .  A
O44          V46   1.887       .  S
O44          C47   1.261       .  A
V45          V46   2.088       .  T
C47         C463   1.464       .  S
C48         C332   1.466       .  S
C49         C348   1.457       .  S
C50         C316   1.457       .  S
O51          V59   1.897       .  S
O51          C61   1.263       .  A
O52          V59   1.897       .  S
O52          C62   1.263       .  A
O53          V59   1.890       .  S
O53          C63   1.262       .  A
O54          V59   1.884       .  S
O54          C64   1.261       .  A
O55          V60   1.900       .  S
O55          C64   1.263       .  A
O56          V60   1.896       .  S
O56          C63   1.262       .  A
O57          V60   1.901       .  S
O57          C62   1.264       .  A
O58          V60   1.904       .  S
O58          C61   1.264       .  A
V59          V60   2.088       .  T
C61         C303   1.463       .  S
C62         C511   1.465       .  S
C63         C268   1.454       .  S
C64         C287   1.453       .  S
C65          C66   1.419       .  A
C65          C70   1.403   1_655  A
C65         C252   1.494       .  S
C66          C67   1.398   1_655  A
C66         C351   1.470       .  S
C67          C68   1.397   1_556  A
C67          H72   1.085       .  S
C68          C69   1.420       .  A
C68         C236   1.485       .  S
C69          C70   1.409   1_554  A
C69         C284   1.481       .  S
C70          H71   1.082       .  S
C73          C74   1.417       .  A
C73          C78   1.403       .  A
C73         C335   1.485       .  S
C74          C75   1.403       .  A
C74         C220   1.476       .  S
C75          C76   1.403   1_655  A
C75          H80   1.085       .  S
C76          C77   1.421       .  A
C76         C300   1.486       .  S
C77          C78   1.403   1_455  A
C77         C207   1.480       .  S
C78          H79   1.084       .  S
O81          V89   1.894       .  S
O81          C91   1.263       .  A
O82          V89   1.893       .  S
O82          C92   1.263       .  A
O83          V89   1.899       .  S
O83          C93   1.264       .  A
O84          V89   1.889       .  S
O84          C94   1.261       .  A
O85          V90   1.911       .  S
O85          C94   1.266       .  A
O86          V90   1.904       .  S
O86          C93   1.265       .  A
O87          V90   1.908       .  S
O87          C92   1.264       .  A
O88          V90   1.905       .  S
O88          C91   1.265       .  A
V89          V90   2.086       .  T
C91         C204   1.467       .  S
C92         C175   1.465       .  S
C93         C239   1.469       .  S
C94         C188   1.465       .  S
O95         V103   1.909       .  S
O95         C105   1.266       .  A
O96         V103   1.912       .  S
O96         C106   1.266       .  A
O97         V103   1.909       .  S
O97         C107   1.266       .  A
O98         V103   1.908       .  S
O98         C108   1.264       .  A
O99         V104   1.907       .  S
O99         C108   1.266       .  A
O100        V104   1.905       .  S
O100        C107   1.266       .  A
O101        V104   1.893       .  S
O101        C106   1.262       .  A
O102        V104   1.902       .  S
O102        C105   1.265       .  A
V103        V104   2.083       .  T
C105        C140   1.475       .  S
C106        C223   1.467       .  S
C107        C156   1.477       .  S
C108        C255   1.475       .  S
C109        C110   1.421       .  A
C109        C114   1.404       .  A
C109        C428   1.482       .  S
C110        C111   1.402       .  A
C110        C172   1.485       .  S
C111        C112   1.401   1_554  A
C111        H116   1.084       .  S
C112        C113   1.420       .  A
C112        C380   1.476       .  S
C113        C114   1.404   1_556  A
C113        C143   1.490       .  S
C114        H115   1.084       .  S
C117        C118   1.423       .  A
C117        C122   1.411       .  A
C117        C444   1.493       .  S
C118        C119   1.399       .  A
C118        C191   1.479       .  S
C119        C120   1.400       .  A
C119        H124   1.085       .  S
C120        C121   1.420       .  A
C120        C396   1.480       .  S
C121        C122   1.403       .  A
C121        C159   1.489       .  S
C122        H123   1.083       .  S
C125        C126   1.421       .  A
C125        C130   1.402       .  A
C125        C412   1.483       .  S
C126        C127   1.402   1_565  A
C126        C271   1.480       .  S
C127        C128   1.396       .  A
C127        H132   1.084       .  S
C128        C129   1.417       .  A
C128        C367   1.478       .  S
C129        C130   1.402   1_545  A
C129        C319   1.478       .  S
C130        H131   1.084       .  S
C133        C138   1.380       .  A
C133        C134   1.406       .  A
C133        O139   1.322       .  A
C134        C135   1.405       .  A
C134        H145   1.082       .  S
C135        C144   1.364       .  A
C135        C136   1.379       .  A
C136        C137   1.405       .  A
C136        O142   1.320       .  A
C137        C138   1.404       .  A
C137        H146   1.082       .  S
C138        C141   1.363       .  A
O139        C140   1.332       .  A
C140        C141   1.392       .  A
C141        H147   1.082       .  S
O142        C143   1.333       .  A
C143        C144   1.394       .  A
C144        H148   1.082       .  S
C149        C154   1.380       .  A
C149        C150   1.403       .  A
C149        O155   1.320       .  A
C150        C151   1.403       .  A
C150        H161   1.082       .  S
C151        C160   1.360       .  A
C151        C152   1.379       .  A
C152        C153   1.408       .  A
C152        O158   1.323       .  A
C153        C154   1.408       .  A
C153        H162   1.082       .  S
C154        C157   1.367       .  A
O155        C156   1.331       .  A
C156        C157   1.394       .  A
C157        H163   1.082       .  S
O158        C159   1.334       .  A
C159        C160   1.393       .  A
C160        H164   1.082       .  S
C165        C170   1.380       .  A
C165        C166   1.397       .  A
C165        O171   1.314       .  A
C166        C167   1.397       .  A
C166        H177   1.083       .  S
C167        C176   1.355       .  A
C167        C168   1.381       .  A
C168        C169   1.408       .  A
C168        O174   1.323       .  A
C169        C170   1.408       .  A
C169        H178   1.082       .  S
C170        C173   1.366       .  A
O171        C172   1.328       .  A
C172        C173   1.397       .  A
C173        H179   1.082       .  S
O174        C175   1.333       .  A
C175        C176   1.386       .  A
C176        H180   1.083       .  S
C181        C186   1.381       .  A
C181        C182   1.400       .  A
C181        O187   1.314       .  A
C182        C183   1.398       .  A
C182        H193   1.082       .  S
C183        C192   1.359       .  A
C183        C184   1.380       .  A
C184        C185   1.407       .  A
C184        O190   1.320       .  A
C185        C186   1.405       .  A
C185        H194   1.082       .  S
C186        C189   1.367       .  A
O187        C188   1.328       .  A
C188        C189   1.392       .  A
C189        H195   1.082       .  S
O190        C191   1.332       .  A
C191        C192   1.390       .  A
C192        H196   1.082       .  S
C197        C202   1.381       .  A
C197        C198   1.404       .  A
C197        O203   1.320       .  A
C198        C199   1.403       .  A
C198        H209   1.082       .  S
C199        C208   1.362       .  A
C199        C200   1.380       .  A
C200        C201   1.401       .  A
C200        O206   1.316       .  A
C201        C202   1.400       .  A
C201        H210   1.082       .  S
C202        C205   1.359       .  A
O203        C204   1.331       .  A
C204        C205   1.390       .  A
C205        H211   1.083       .  S
O206        C207   1.330       .  A
C207        C208   1.393       .  A
C208        H212   1.082       .  S
C213        C218   1.381       .  A
C213        C214   1.402       .  A
C213        O219   1.318       .  A
C214        C215   1.401       .  A
C214        H225   1.082       .  S
C215        C224   1.359       .  A
C215        C216   1.381       .  A
C216        C217   1.405       .  A
C216        O222   1.321       .  A
C217        C218   1.404       .  A
C217        H226   1.082       .  S
C218        C221   1.363       .  A
O219        C220   1.330       .  A
C220        C221   1.390       .  A
C221        H227   1.082       .  S
O222        C223   1.331       .  A
C223        C224   1.390       .  A
C224        H228   1.083       .  S
C229        C234   1.380       .  A
C229        C230   1.403       .  A
C229        O235   1.318       .  A
C230        C231   1.402       .  A
C230        H241   1.082       .  S
C231        C240   1.361       .  A
C231        C232   1.381       .  A
C232        C233   1.404       .  A
C232        O238   1.320       .  A
C233        C234   1.404       .  A
C233        H242   1.082       .  S
C234        C237   1.363       .  A
O235        C236   1.332       .  A
C236        C237   1.393       .  A
C237        H243   1.082       .  S
O238        C239   1.331       .  A
C239        C240   1.391       .  A
C240        H244   1.082       .  S
C245        C250   1.379       .  A
C245        C246   1.401       .  A
C245        O251   1.315       .  A
C246        C247   1.400       .  A
C246        H257   1.083       .  S
C247        C256   1.361       .  A
C247        C248   1.380       .  A
C248        C249   1.410       .  A
C248        O254   1.324       .  A
C249        C250   1.409       .  A
C249        H258   1.082       .  S
C250        C253   1.370       .  A
O251        C252   1.331       .  A
C252        C253   1.398       .  A
C253        H259   1.082       .  S
O254        C255   1.334       .  A
C255        C256   1.389       .  A
C256        H260   1.083       .  S
C261        C266   1.382       .  A
C261        C262   1.403       .  A
C261        O267   1.318       .  A
C262        C263   1.402       .  A
C262        H273   1.082       .  S
C263        C272   1.361       .  A
C263        C264   1.380       .  A
C264        C265   1.396       .  A
C264        O270   1.310       .  A
C265        C266   1.395       .  A
C265        H274   1.082       .  S
C266        C269   1.354       .  A
O267        C268   1.329       .  A
C268        C269   1.385       .  A
C269        H275   1.082       .  S
O270        C271   1.327       .  A
C271        C272   1.395       .  A
C272        H276   1.082       .  S
C277        C282   1.379       .  A
C277        C278   1.396       .  A
C277        O283   1.310       .  A
C278        C279   1.395       .  A
C278        H289   1.083       .  S
C279        C288   1.353       .  A
C279        C280   1.382       .  A
C280        C281   1.403       .  A
C280        O286   1.318       .  A
C281        C282   1.402       .  A
C281        H290   1.082       .  S
C282        C285   1.361       .  A
O283        C284   1.328       .  A
C284        C285   1.394       .  A
C285        H291   1.082       .  S
O286        C287   1.329       .  A
C287        C288   1.385       .  A
C288        H292   1.083       .  S
C293        C298   1.379       .  A
C293        C294   1.408       .  A
C293        O299   1.323       .  A
C294        C295   1.407       .  A
C294        H305   1.082       .  S
C295        C304   1.367       .  A
C295        C296   1.381       .  A
C296        C297   1.399       .  A
C296        O302   1.315       .  A
C297        C298   1.398       .  A
C297        H306   1.083       .  S
C298        C301   1.355       .  A
O299        C300   1.334       .  A
C300        C301   1.391       .  A
C301        H307   1.082       .  S
O302        C303   1.327       .  A
C303        C304   1.392       .  A
C304        H308   1.082       .  S
C309        C314   1.381       .  A
C309        C310   1.404       .  A
C309        O315   1.318       .  A
C310        C311   1.403       .  A
C310        H321   1.082       .  S
C311        C320   1.362       .  A
C311        C312   1.380       .  A
C312        C313   1.398       .  A
C312        O318   1.311       .  A
C313        C314   1.396       .  A
C313        H322   1.082       .  S
C314        C317   1.356       .  A
O315        C316   1.330       .  A
C316        C317   1.386       .  A
C317        H323   1.083       .  S
O318        C319   1.328       .  A
C319        C320   1.393       .  A
C320        H324   1.082       .  S
C325        C330   1.381       .  A
C325        C326   1.405       .  A
C325        O331   1.319       .  A
C326        C327   1.404       .  A
C326        H337   1.082       .  S
C327        C336   1.363       .  A
C327        C328   1.379       .  A
C328        C329   1.400       .  A
C328        O334   1.314       .  A
C329        C330   1.399       .  A
C329        H338   1.083       .  S
C330        C333   1.358       .  A
O331        C332   1.331       .  A
C332        C333   1.389       .  A
C333        H339   1.083       .  S
O334        C335   1.328       .  A
C335        C336   1.395       .  A
C336        H340   1.082       .  S
C341        C346   1.382       .  A
C341        C342   1.398       .  A
C341        O347   1.315       .  A
C342        C343   1.398       .  A
C342        H353   1.083       .  S
C343        C352   1.354       .  A
C343        C344   1.381       .  A
C344        C345   1.400       .  A
C344        O350   1.316       .  A
C345        C346   1.400       .  A
C345        H354   1.082       .  S
C346        C349   1.358       .  A
O347        C348   1.328       .  A
C348        C349   1.389       .  A
C349        H355   1.083       .  S
O350        C351   1.329       .  A
C351        C352   1.390       .  A
C352        H356   1.083       .  S
C357        C362   1.381       .  A
C357        C358   1.403       .  A
C357        O363   1.319       .  A
C358        C359   1.402       .  A
C358        H369   1.082       .  S
C359        C368   1.360       .  A
C359        C360   1.381       .  A
C360        C361   1.401       .  A
C360        O366   1.318       .  A
C361        C362   1.401       .  A
C361        H370   1.082       .  S
C362        C365   1.358       .  A
O363        C364   1.331       .  A
C364        C365   1.389       .  A
C365        H371   1.082       .  S
O366        C367   1.329       .  A
C367        C368   1.393       .  A
C368        H372   1.082       .  S
C373        C378   1.380       .  A
C373        C374   1.408       .  A
C373        O379   1.321       .  A
C374        C375   1.407       .  A
C374        H385   1.082       .  S
C375        C384   1.368       .  A
C375        C376   1.382       .  A
C376        C377   1.394       .  A
C376        O382   1.311       .  A
C377        C378   1.392       .  A
C377        H386   1.082       .  S
C378        C381   1.350       .  A
O379        C380   1.334       .  A
C380        C381   1.387       .  A
C381        H387   1.082       .  S
O382        C383   1.324       .  A
C383        C384   1.392       .  A
C384        H388   1.082       .  S
C389        C394   1.380       .  A
C389        C390   1.403       .  A
C389        O395   1.318       .  A
C390        C391   1.402       .  A
C390        H401   1.082       .  S
C391        C400   1.362       .  A
C391        C392   1.381       .  A
C392        C393   1.401       .  A
C392        O398   1.317       .  A
C393        C394   1.400       .  A
C393        H402   1.083       .  S
C394        C397   1.358       .  A
O395        C396   1.331       .  A
C396        C397   1.392       .  A
C397        H403   1.083       .  S
O398        C399   1.329       .  A
C399        C400   1.389       .  A
C400        H404   1.082       .  S
C405        C410   1.380       .  A
C405        C406   1.400       .  A
C405        O411   1.316       .  A
C406        C407   1.399       .  A
C406        H417   1.083       .  S
C407        C416   1.356       .  A
C407        C408   1.381       .  A
C408        C409   1.405       .  A
C408        O414   1.322       .  A
C409        C410   1.405       .  A
C409        H418   1.082       .  S
C410        C413   1.363       .  A
O411        C412   1.330       .  A
C412        C413   1.393       .  A
C413        H419   1.082       .  S
O414        C415   1.332       .  A
C415        C416   1.389       .  A
C416        H420   1.083       .  S
C421        C426   1.380       .  A
C421        C422   1.406       .  A
C421        O427   1.320       .  A
C422        C423   1.405       .  A
C422        H433   1.082       .  S
C423        C432   1.365       .  A
C423        C424   1.381       .  A
C424        C425   1.401       .  A
C424        O430   1.316       .  A
C425        C426   1.400       .  A
C425        H434   1.082       .  S
C426        C429   1.358       .  A
O427        C428   1.332       .  A
C428        C429   1.392       .  A
C429        H435   1.082       .  S
O430        C431   1.330       .  A
C431        C432   1.392       .  A
C432        H436   1.082       .  S
C437        C442   1.378       .  A
C437        C438   1.401       .  A
C437        O443   1.314       .  A
C438        C439   1.400       .  A
C438        H449   1.082       .  S
C439        C448   1.359       .  A
C439        C440   1.381       .  A
C440        C441   1.405       .  A
C440        O446   1.320       .  A
C441        C442   1.404       .  A
C441        H450   1.082       .  S
C442        C445   1.363       .  A
O443        C444   1.331       .  A
C444        C445   1.397       .  A
C445        H451   1.082       .  S
O446        C447   1.331       .  A
C447        C448   1.389       .  A
C448        H452   1.082       .  S
C453        C458   1.381       .  A
C453        C454   1.398       .  A
C453        O459   1.314       .  A
C454        C455   1.397       .  A
C454        H465   1.082       .  S
C455        C464   1.355       .  A
C455        C456   1.381       .  A
C456        C457   1.404       .  A
C456        O462   1.321       .  A
C457        C458   1.404       .  A
C457        H466   1.082       .  S
C458        C461   1.363       .  A
O459        C460   1.328       .  A
C460        C461   1.392       .  A
C461        H467   1.082       .  S
O462        C463   1.331       .  A
C463        C464   1.388       .  A
C464        H468   1.083       .  S
C469        C474   1.377       .  A
C469        C470   1.402       .  A
C469        O475   1.314       .  A
C470        C471   1.400       .  A
C470        H481   1.082       .  S
C471        C480   1.361       .  A
C471        C472   1.381       .  A
C472        C473   1.404       .  A
C472        O478   1.317       .  A
C473        C474   1.403       .  A
C473        H482   1.082       .  S
C474        C477   1.363       .  A
O475        C476   1.331       .  A
C476        C477   1.398       .  A
C477        H483   1.082       .  S
O478        C479   1.330       .  A
C479        C480   1.390       .  A
C480        H484   1.082       .  S
C485        C490   1.379       .  A
C485        C486   1.398       .  A
C485        O491   1.313       .  A
C486        C487   1.398       .  A
C486        H497   1.083       .  S
C487        C496   1.356       .  A
C487        C488   1.381       .  A
C488        C489   1.408       .  A
C488        O494   1.323       .  A
C489        C490   1.408       .  A
C489        H498   1.082       .  S
C490        C493   1.367       .  A
O491        C492   1.329       .  A
C492        C493   1.398       .  A
C493        H499   1.082       .  S
O494        C495   1.333       .  A
C495        C496   1.388       .  A
C496        H500   1.083       .  S
C501        C506   1.381       .  A
C501        C502   1.401       .  A
C501        O507   1.317       .  A
C502        C503   1.401       .  A
C502        H513   1.082       .  S
C503        C512   1.359       .  A
C503        C504   1.381       .  A
C504        C505   1.402       .  A
C504        O510   1.318       .  A
C505        C506   1.401       .  A
C505        H514   1.082       .  S
C506        C509   1.359       .  A
O507        C508   1.330       .  A
C508        C509   1.391       .  A
C509        H515   1.083       .  S
O510        C511   1.330       .  A
C511        C512   1.390       .  A
C512        H516   1.082       .  S
