geometry optimzed in LAMMPS
_audit_creation_date              2020-12-01 
_audit_creation_method            'lammps2cif' 
_symmetry_space_group_name_H-M    'P1' 
_symmetry_Int_Tables_number       1 
_symmetry_cell_setting            triclinic 
loop_ 
_symmetry_equiv_pos_as_xyz 
  x,y,z 
_cell_length_a                    39.31410545 
_cell_length_b                    33.979742650191895 
_cell_length_c                    38.996627969910406 
_cell_angle_alpha                 80.7959284992206 
_cell_angle_beta                  77.23984928968933 
_cell_angle_gamma                 89.71452299829116 
loop_ 
_atom_site_label 
_atom_site_type_symbol 
_atom_site_fract_x 
_atom_site_fract_y 
_atom_site_fract_z 
_atom_site_charge 
Zr1        Zr  0.95167470  0.96626916  0.46894317     2.17500
O2          O  0.90811423  0.96952386  0.43268547    -0.51400
O3          O  0.93541979  0.89492017  0.48239036    -0.74600
O4          O  0.97615549  0.96163240  0.40602497    -0.81400
O5          O  0.88365587  0.00240965  0.54395932    -0.83200
O6          O  0.03440872  0.97486542  0.39358050    -0.78800
O7          O  0.89108445  0.98159785  0.49027616    -0.90400
O8          O  0.96146407  0.86573984  0.52587681    -0.76400
O9          O  0.00449537  0.93378446  0.47431532    -0.85900
O10         O  0.94693454  0.94632772  0.53136879    -0.85600
O11         O  0.99642605  0.01719675  0.44285697    -0.72300
O12         O  0.94443621  0.02619902  0.49519177    -0.84500
Zr13       Zr  0.03991379  0.02236572  0.53733867     2.26400
Zr14       Zr  0.04943225  0.98416612  0.44900322     2.06300
Zr15       Zr  0.94101909  0.00588902  0.55750433     2.10000
Zr16       Zr  0.00008877  0.91469891  0.53676371     1.78800
O17         O  0.91239246  0.06605550  0.57407891    -0.93300
O18         O  0.03460496  0.85911017  0.51774292    -0.41100
O19         O  0.99392984  0.97337357  0.56361413    -0.77700
O20         O  0.04712781  0.96242412  0.51116463    -0.96400
O21         O  0.04355968  0.04333729  0.47551055    -0.89700
O22         O  0.98688193  0.05544567  0.53311884    -0.92500
C23         C  0.94063819  0.86487347  0.50506364     1.01200
C24         C  0.87214395  0.99351123  0.51770758     1.14200
C25         C  0.00626462  0.96654073  0.38433411     1.04900
O26         O  0.07747135  0.92251598  0.43601728    -0.94700
O27         O  0.10778845  0.99444671  0.45775092    -0.90400
O28         O  0.10164452  0.01747472  0.51018020    -0.83600
C29         C  0.12035651  0.00699166  0.48185995     1.11600
O30         O  0.95156674  0.10401118  0.43365912    -0.96700
Zr31       Zr  0.99055856  0.07522826  0.47095731     1.88900
O32         O  0.05607798  0.09310324  0.52546844    -0.73300
O33         O  0.08758734  0.02641417  0.39911385    -0.52600
O34         O  0.02093646  0.10522341  0.41107956    -0.97200
O35         O  0.95348925  0.12636588  0.49540455    -0.54500
O36         O  0.03278847  0.12200585  0.47954635    -0.73800
C37         C  0.05256854  0.12252022  0.50153066     0.98500
O38         O  0.07699051  0.01195339  0.58046369    -0.62600
O39         O  0.90122861  0.96585888  0.60770523    -0.57400
O40         O  0.01677240  0.02455207  0.60040039    -0.94100
O41         O  0.95877069  0.00875634  0.61300748    -0.92600
O42         O  0.96646867  0.88750880  0.59618092    -0.92900
O43         O  0.04041144  0.89087870  0.57423465    -0.91700
C44         C  0.98704003  0.01683622  0.62224981     1.17400
H45         H  0.92688488  0.92875040  0.54195003     0.33300
H46         H  0.06851176  0.94984764  0.51442402     0.44200
H47         H  0.98415381  0.07780269  0.54590471     0.37700
H48         H  0.99620702  0.02693469  0.41826318     0.34200
H49         H  0.02244831  0.83498949  0.53317469     0.26000
H50         H  0.09921601  0.00781295  0.38342181     0.31900
H51         H  0.04580357  0.09950162  0.41008666     0.37800
H52         H  0.97533586  0.86042188  0.60158397     0.32300
H53         H  0.88171173  0.98356809  0.61472749     0.31100
H54         H  0.92387991  0.07371955  0.59231342     0.32800
H55         H  0.96615398  0.13744167  0.51118558     0.31800
H56         H  0.04836868  0.91519383  0.58158725     0.35800
H57         H  0.09031643  0.98781538  0.57585955     0.28500
H58         H  0.91078437  0.94528818  0.42132459     0.32700
H59         H  0.95832860  0.13272624  0.42693680     0.35600
H60         H  0.89096204  0.94512160  0.59753042     0.28200
H61         H  0.09449471  0.03431881  0.57339496     0.41100
H62         H  0.08623937  0.91200738  0.45752215     0.31100
H63         H  0.03065475  0.85747439  0.49378814     0.38800
H64         H  0.93311964  0.11145717  0.51172282     0.30600
H65         H  0.07176441  0.04143923  0.38563198     0.30700
H66         H  0.91565419  0.99210396  0.41296900     0.30900
Zr67       Zr  0.53612393  0.03056189  0.53305472     2.17500
O68         O  0.54740381  0.08022924  0.56843579    -0.51400
O69         O  0.59608279  0.00942624  0.53011249    -0.74600
O70         O  0.52402205  0.00694456  0.59690835    -0.81400
O71         O  0.55333630  0.11051683  0.44926976    -0.83200
O72         O  0.49052416  0.95002147  0.60985782    -0.78800
O73         O  0.56085679  0.09646288  0.50589399    -0.90400
O74         O  0.60842219  0.96368536  0.49328565    -0.76400
O75         O  0.53527416  0.96035391  0.53387743    -0.85900
O76         O  0.55829304  0.02144724  0.47311973    -0.85600
O77         O  0.47565728  0.00993651  0.55500209    -0.72300
O78         O  0.49778004  0.06593258  0.49955019    -0.84500
Zr79       Zr  0.45826105  0.96327947  0.46132346     2.26400
Zr80       Zr  0.47508455  0.93937125  0.55481786     2.06300
Zr81       Zr  0.51965150  0.05518380  0.43968039     2.10000
Zr82       Zr  0.55616776  0.95141202  0.47354772     1.78800
O83         O  0.49481995  0.11693429  0.41663528    -0.93300
O84         O  0.56868997  0.88609917  0.50325721    -0.41100
O85         O  0.51814384  0.98502351  0.43940758    -0.77700
O86         O  0.49673274  0.92794406  0.49476429    -0.96400
O87         O  0.43631535  0.97295722  0.52114892    -0.89700
O88         O  0.45960714  0.03367989  0.45986904    -0.92500
C89         C  0.61699268  0.98566023  0.51390128     1.01200
C90         C  0.56499708  0.11912437  0.47548847     1.14200
C91         C  0.50775529  0.97726870  0.61877974     1.04900
O92         O  0.50071509  0.87687611  0.57484052    -0.94700
O93         O  0.43968191  0.88445449  0.54724100    -0.90400
O94         O  0.42955537  0.89967919  0.49148434    -0.83600
C95         C  0.42619927  0.87694265  0.52177960     1.11600
O96         O  0.43236263  0.09089270  0.56114685    -0.96700
Zr97       Zr  0.43804585  0.04313062  0.51982799     1.88900
O98         O  0.39857220  0.98327070  0.46195071    -0.73300
O99         O  0.42279933  0.92996158  0.60274433    -0.52600
O100        O  0.39073978  0.02801377  0.57260820    -0.97200
O101        O  0.42710279  0.10951062  0.49051990    -0.54500
O102        O  0.38628150  0.02865830  0.49925178    -0.73800
C103        C  0.37774050  0.00690456  0.47830203     0.98500
O104        O  0.45338102  0.91813417  0.41983682    -0.62600
O105        O  0.57167905  0.06227649  0.39135409    -0.57400
O106        O  0.47324029  0.98433191  0.39709589    -0.94100
O107        O  0.50610859  0.04186705  0.38506992    -0.92600
O108        O  0.60242514  0.96672437  0.41976257    -0.92900
O109        O  0.56127627  0.90337571  0.43270599    -0.91700
C110        C  0.49030656  0.01388567  0.37561395     1.17400
H111        H  0.58173856  0.03253512  0.46431254     0.33300
H112        H  0.49589271  0.89979805  0.49357529     0.44200
H113        H  0.44578325  0.04681904  0.44402475     0.37700
H114        H  0.46699700  0.01555527  0.57881800     0.34200
H115        H  0.59087118  0.87877062  0.48835750     0.26000
H116        H  0.42887860  0.90973813  0.62153397     0.31900
H117        H  0.38340484  0.00006164  0.57311642     0.37800
H118        H  0.61505748  0.99065761  0.42270395     0.32300
H119        H  0.56871812  0.08730533  0.37554146     0.31100
H120        H  0.51208497  0.12799018  0.39463097     0.32800
H121        H  0.40196613  0.11345196  0.49959742     0.31800
H122        H  0.53981943  0.90638689  0.42329704     0.35800
H123        H  0.46585642  0.89401286  0.42733721     0.28500
H124        H  0.56278031  0.06777196  0.58382613     0.32700
H125        H  0.40959870  0.10349004  0.56110422     0.35600
H126        H  0.59114722  0.06833695  0.40217984     0.28200
H127        H  0.42846029  0.90956573  0.42532704     0.41100
H128        H  0.48904472  0.86963603  0.60032617     0.31100
H129        H  0.57499128  0.89122791  0.52539693     0.38800
H130        H  0.42913077  0.10726895  0.46517507     0.30600
H131        H  0.42097650  0.95506139  0.61279402     0.30700
H132        H  0.52485316  0.08358701  0.58486225     0.30900
Zr133      Zr  0.20301034  0.48140860  0.46122658     2.17500
O134        O  0.16820194  0.50295653  0.41738456    -0.51400
O135        O  0.18131988  0.41255581  0.46808892    -0.74600
O136        O  0.23189573  0.47417048  0.40069260    -0.81400
O137        O  0.13137514  0.51381257  0.53381440    -0.83200
O138        O  0.29046228  0.47619350  0.39418399    -0.78800
O139        O  0.14200972  0.49660347  0.47861023    -0.90400
O140        O  0.20509964  0.37477098  0.50963533    -0.76400
O141        O  0.25193946  0.44263264  0.46957214    -0.85900
O142        O  0.19170777  0.45570134  0.52317624    -0.85600
O143        O  0.25211468  0.52771107  0.44126910    -0.72300
O144        O  0.19714055  0.53879587  0.49082263    -0.84500
Zr145      Zr  0.28513701  0.51832928  0.54358477     2.26400
Zr146      Zr  0.30108995  0.48865089  0.45098216     2.06300
Zr147      Zr  0.18652181  0.51244684  0.55298742     2.10000
Zr148      Zr  0.24092001  0.41768318  0.53172318     1.78800
O149        O  0.15970254  0.57367207  0.56876990    -0.93300
O150        O  0.28027182  0.36665735  0.51071488    -0.41100
O151        O  0.23534012  0.47332838  0.56290675    -0.77700
O152        O  0.29133134  0.46157712  0.51323010    -0.96400
O153        O  0.29623321  0.54456404  0.48168527    -0.89700
O154        O  0.23620381  0.55744810  0.53506433    -0.92500
C155        C  0.18529089  0.37918599  0.48736710     1.01200
C156        C  0.12161221  0.50744092  0.50576056     1.14200
C157        C  0.26303574  0.47358628  0.38175320     1.04900
O158        O  0.33583486  0.43276156  0.43336414    -0.94700
O159        O  0.35718554  0.49285464  0.46727145    -0.90400
O160        O  0.34774071  0.51369389  0.52112682    -0.83600
C161        C  0.36787033  0.50374375  0.49330695     1.11600
O162        O  0.21451799  0.61838724  0.43202318    -0.96700
Zr163      Zr  0.24751279  0.58313007  0.47298485     1.88900
O164        O  0.30600428  0.58671069  0.53896488    -0.73300
O165        O  0.33638979  0.53919439  0.40599009    -0.52600
O166        O  0.28579564  0.61278741  0.41664237    -0.97200
O167        O  0.21401815  0.63756804  0.49611036    -0.54500
O168        O  0.28939538  0.62292230  0.49140328    -0.73800
C169        C  0.30615811  0.61877447  0.51645089     0.98500
O170        O  0.31520729  0.48581945  0.58860234    -0.62600
O171        O  0.14320084  0.47110365  0.59891782    -0.57400
O172        O  0.25673004  0.52513408  0.60463174    -0.94100
O173        O  0.19825567  0.51525101  0.61130936    -0.92600
O174        O  0.19760867  0.38586656  0.58346160    -0.92900
O175        O  0.26861344  0.38340017  0.57771950    -0.91700
C176        C  0.22540426  0.51994747  0.62370226     1.17400
H177        H  0.17045569  0.43954158  0.53063776     0.33300
H178        H  0.31117972  0.44661043  0.51800087     0.44200
H179        H  0.23350913  0.57861723  0.54921014     0.37700
H180        H  0.25484339  0.53833989  0.41631605     0.34200
H181        H  0.26842404  0.34101222  0.52315139     0.26000
H182        H  0.35761505  0.52531205  0.39607859     0.31900
H183        H  0.29494310  0.63809392  0.42118664     0.37800
H184        H  0.20054947  0.35687023  0.58370461     0.32300
H185        H  0.12408391  0.48925333  0.60606717     0.31100
H186        H  0.13952656  0.56465607  0.58867857     0.32800
H187        H  0.22493845  0.64439745  0.51506293     0.31800
H188        H  0.26577653  0.40121412  0.59585211     0.35800
H189        H  0.29704598  0.46963987  0.60706793     0.28500
H190        H  0.16598895  0.47965622  0.40558846     0.32700
H191        H  0.22415955  0.64613396  0.42596196     0.35600
H192        H  0.13313141  0.45251650  0.58641081     0.28200
H193        H  0.32970418  0.46544680  0.57732689     0.41100
H194        H  0.33542846  0.41462741  0.45601596     0.31100
H195        H  0.27896202  0.36754290  0.48553724     0.38800
H196        H  0.19110028  0.62511786  0.50898563     0.30600
H197        H  0.32383131  0.54430355  0.38641822     0.30700
H198        H  0.18291522  0.52294417  0.39883820     0.30900
Zr199      Zr  0.70677882  0.47705087  0.45536876     2.17500
O200        O  0.67420680  0.50789773  0.41212902    -0.51400
O201        O  0.69101356  0.40800518  0.45467741    -0.74600
O202        O  0.73737855  0.47472203  0.39428131    -0.81400
O203        O  0.63082226  0.49235642  0.53105570    -0.83200
O204        O  0.79495953  0.48935706  0.38895141    -0.78800
O205        O  0.64414063  0.48191509  0.47347122    -0.90400
O206        O  0.71516393  0.36876303  0.49507984    -0.76400
O207        O  0.75886220  0.44307787  0.46103233    -0.85900
O208        O  0.69590036  0.44467027  0.51581793    -0.85600
O209        O  0.75206926  0.52816214  0.44028494    -0.72300
O210        O  0.69409387  0.52842247  0.49161306    -0.84500
Zr211      Zr  0.78192979  0.51287856  0.54351154     2.26400
Zr212      Zr  0.80405248  0.49386556  0.44797423     2.06300
Zr213      Zr  0.68472916  0.49584692  0.55205563     2.10000
Zr214      Zr  0.74800945  0.41116836  0.52140192     1.78800
O215        O  0.64665963  0.54737516  0.57406246    -0.93300
O216        O  0.78953689  0.36484929  0.49529705    -0.41100
O217        O  0.73671770  0.46174396  0.55854125    -0.77700
O218        O  0.79451645  0.46042365  0.50826654    -0.96400
O219        O  0.79181445  0.54524588  0.48346754    -0.89700
O220        O  0.72972486  0.54675485  0.53784027    -0.92500
C221        C  0.69621090  0.37387840  0.47194957     1.01200
C222        C  0.62232506  0.48742808  0.50194243     1.14200
C223        C  0.76871908  0.48226565  0.37595072     1.04900
O224        O  0.84090341  0.44078730  0.42743712    -0.94700
O225        O  0.85850902  0.50202980  0.46703921    -0.90400
O226        O  0.84496900  0.51422304  0.52408646    -0.83600
C227        C  0.86696909  0.50947348  0.49546827     1.11600
O228        O  0.70334035  0.60530185  0.43646806    -0.96700
Zr229      Zr  0.73974174  0.57835878  0.47728913     1.88900
O230        O  0.80089454  0.58183979  0.54055800    -0.73300
O231        O  0.84177816  0.54606709  0.40753874    -0.52600
O232        O  0.77700193  0.61827163  0.42521880    -0.97200
O233        O  0.69934672  0.62735272  0.50060605    -0.54500
O234        O  0.77624541  0.62038934  0.49990886    -0.73800
C235        C  0.79604820  0.61555953  0.52225690     0.98500
O236        O  0.80888761  0.47778795  0.58994941    -0.62600
O237        O  0.65119577  0.44280010  0.59575356    -0.57400
O238        O  0.75228317  0.52009219  0.60347216    -0.94100
O239        O  0.69528145  0.50198010  0.61051991    -0.92600
O240        O  0.70887838  0.36795470  0.56973093    -0.92900
O241        O  0.78045940  0.37965896  0.56427362    -0.91700
C242        C  0.72139941  0.51175546  0.62264320     1.17400
H243        H  0.67610440  0.42625058  0.52137693     0.33300
H244        H  0.81536878  0.44719147  0.51244190     0.44200
H245        H  0.72477738  0.56611757  0.55376817     0.37700
H246        H  0.75441255  0.54124409  0.41593725     0.34200
H247        H  0.77749760  0.33834215  0.50317767     0.26000
H248        H  0.85199326  0.53397874  0.38624131     0.31900
H249        H  0.77447443  0.64611746  0.42971678     0.37800
H250        H  0.70302876  0.38398302  0.58919710     0.32300
H251        H  0.63117140  0.45628084  0.60872700     0.31100
H252        H  0.63212123  0.53404331  0.59702691     0.32800
H253        H  0.71113551  0.65350319  0.48977680     0.31800
H254        H  0.77440453  0.39463288  0.58447582     0.35800
H255        H  0.78994443  0.46098007  0.60683610     0.28500
H256        H  0.67248016  0.48783729  0.39671447     0.32700
H257        H  0.71118454  0.63348981  0.42784963     0.35600
H258        H  0.64077803  0.42629708  0.58176330     0.28200
H259        H  0.82405077  0.45817114  0.57828419     0.41100
H260        H  0.84177777  0.42209656  0.44944682     0.31100
H261        H  0.79037564  0.37074012  0.46942411     0.38800
H262        H  0.69966534  0.62468916  0.52617043     0.30600
H263        H  0.82569501  0.56612045  0.39946274     0.30700
H264        H  0.68985350  0.52948880  0.39659515     0.30900
Zr265      Zr  0.96548484  0.03942956  0.96168003     2.17500
O266        O  0.96253066  0.09798261  0.91730823    -0.51400
O267        O  0.90427643  0.01952120  0.97325169    -0.74600
O268        O  0.96842532  0.02191043  0.90277658    -0.81400
O269        O  0.95249519  0.10646856  0.03329127    -0.83200
O270        O  0.00461938  0.97011117  0.89668467    -0.78800
O271        O  0.93957185  0.09942623  0.98051387    -0.90400
O272        O  0.89400990  0.96838112  0.02004885    -0.76400
O273        O  0.96710814  0.96841525  0.97194132    -0.85900
O274        O  0.94696154  0.01963899  0.02440875    -0.85600
O275        O  0.02516857  0.02506295  0.93900544    -0.72300
O276        O  0.00484515  0.07174287  0.98824344    -0.84500
Zr277      Zr  0.04834817  0.96353573  0.03919877     2.26400
Zr278      Zr  0.02703073  0.95381514  0.95058709     2.06300
Zr279      Zr  0.98681356  0.04995886  0.05100984     2.10000
Zr280      Zr  0.94885088  0.94898717  0.03484582     1.78800
O281        O  0.01509980  0.10802906  0.06337158    -0.93300
O282        O  0.92800959  0.88904028  0.01783257    -0.38700
O283        O  0.98887612  0.97867419  0.06191290    -0.77700
O284        O  0.00784910  0.93123830  0.01357060    -0.96400
O285        O  0.06725675  0.98481672  0.97667711    -0.89700
O286        O  0.04647838  0.03453230  0.02981442    -0.92500
C287        C  0.88405638  0.99468360  0.99724240     1.01200
C288        C  0.93822166  0.11808143  0.00690471     1.14200
C289        C  0.98443776  0.99617621  0.88474486     1.04900
O290        O  0.00790277  0.89249813  0.93467181    -0.94700
O291        O  0.06281944  0.89801064  0.96640205    -0.90400
O292        O  0.07230234  0.90179162  0.02117831    -0.83600
C293        C  0.07559156  0.88482649  0.99353101     1.11600
O294        O  0.06248407  0.11266377  0.92075625    -0.96700
Zr295      Zr  0.06406290  0.05561360  0.96705128     1.88900
O296        O  0.10945832  0.98474889  0.02587456    -0.73300
O297        O  0.07842688  0.96217229  0.90168356    -0.52600
O298        O  0.10797851  0.05381252  0.91242824    -0.97200
O299        O  0.07926222  0.11628673  0.98708723    -0.54500
O300        O  0.11860395  0.04013650  0.98359923    -0.73800
C301        C  0.12910348  0.01276056  0.00506746     0.98500
O302        O  0.06228701  0.91694045  0.08831142    -0.62600
O303        O  0.93646188  0.04998185  0.10044286    -0.57400
O304        O  0.03663103  0.97468387  0.10095238    -0.94100
O305        O  0.00186279  0.02791601  0.10781899    -0.92600
O306        O  0.91087470  0.95611910  0.09184727    -0.92900
O307        O  0.94612592  0.88972487  0.07981461    -0.91700
C308        C  0.01930625  0.99896820  0.11981239     1.17400
H309        H  0.92400424  0.02895796  0.03316860     0.33300
H310        H  0.00856806  0.90256711  0.01905883     0.44200
H311        H  0.06143652  0.04579388  0.04257792     0.37700
H312        H  0.03171749  0.03476652  0.91372524     0.34200
H313        H  0.90226623  0.89055954  0.02311342     0.26000
H314        H  0.07211676  0.94825571  0.88341076     0.31900
H315        H  0.12801830  0.07015532  0.91443928     0.37800
H316        H  0.88915484  0.94096235  0.09277643     0.32300
H317        H  0.93907643  0.07515965  0.10948081     0.31100
H318        H  0.99624454  0.12100694  0.07853793     0.32800
H319        H  0.08880500  0.10724139  0.00838636     0.31800
H320        H  0.96991397  0.88798116  0.08442232     0.35800
H321        H  0.04910618  0.89184061  0.08937265     0.28500
H322        H  0.94084755  0.09413508  0.90915285     0.32700
H323        H  0.08531876  0.12696247  0.91628134     0.35600
H324        H  0.91600684  0.05379013  0.08948931     0.28200
H325        H  0.08715707  0.91072987  0.08047030     0.41100
H326        H  0.99444992  0.87732657  0.95738711     0.31100
H327        H  0.93502602  0.89328511  0.99149465     0.38800
H328        H  0.05658547  0.12779766  0.99646261     0.30600
H329        H  0.07934716  0.99079190  0.89126369     0.30700
H330        H  0.98180628  0.09596264  0.89655307     0.30900
Zr331      Zr  0.47044626  0.04302019  0.95185491     2.17500
O332        O  0.46932605  0.10080767  0.90634298    -0.51400
O333        O  0.40889706  0.02500163  0.96143708    -0.74600
O334        O  0.47660276  0.02078484  0.89363422    -0.81400
O335        O  0.45411675  0.11223726  0.02173215    -0.83200
O336        O  0.51298753  0.96864662  0.89220877    -0.78800
O337        O  0.44576833  0.10536871  0.96697180    -0.90400
O338        O  0.39590501  0.97251808  0.00687816    -0.76400
O339        O  0.46944202  0.97222302  0.96564494    -0.85900
O340        O  0.44837279  0.02630471  0.01469138    -0.85600
O341        O  0.53014598  0.02521884  0.93332856    -0.72300
O342        O  0.50927655  0.07508063  0.97925669    -0.84500
Zr343      Zr  0.54586735  0.96801534  0.03873084     2.26400
Zr344      Zr  0.52884873  0.95405181  0.94917749     2.06300
Zr345      Zr  0.48751985  0.05697974  0.04200225     2.10000
Zr346      Zr  0.44803419  0.95557398  0.02826858     1.78800
O347        O  0.51525920  0.11787876  0.04968896    -0.93300
O348        O  0.43135422  0.89495928  0.00929328    -0.41100
O349        O  0.48634840  0.98600958  0.05706332    -0.77700
O350        O  0.50688634  0.93520977  0.01198229    -0.96400
O351        O  0.56804599  0.98499991  0.97622580    -0.89700
O352        O  0.54666574  0.03880097  0.02494492    -0.92500
C353        C  0.38766065  0.99896514  0.98306535     1.01200
C354        C  0.44232510  0.12380766  0.99376604     1.14200
C355        C  0.49382101  0.99385663  0.87778456     1.04900
O356        O  0.49859030  0.89453391  0.94207615    -0.94700
O357        O  0.56402991  0.89998577  0.96836116    -0.90400
O358        O  0.57473264  0.90823345  0.02181191    -0.83600
C359        C  0.57768953  0.88944915  0.99527305     1.11600
O360        O  0.57064219  0.11057541  0.91318202    -0.96700
Zr361      Zr  0.56824810  0.05559564  0.96230970     1.88900
O362        O  0.60627746  0.98885450  0.03178014    -0.73300
O363        O  0.58085464  0.94801112  0.90316061    -0.52600
O364        O  0.61436928  0.04466073  0.91187023    -0.97200
O365        O  0.58547462  0.11782939  0.97848270    -0.54500
O366        O  0.61984444  0.03906131  0.98477005    -0.73800
C367        C  0.62783231  0.01440208  0.00995963     0.98500
O368        O  0.54460875  0.91650287  0.09032641    -0.62600
O369        O  0.43759229  0.05991111  0.09117559    -0.57400
O370        O  0.53872367  0.98722329  0.09724414    -0.94100
O371        O  0.50398982  0.04086376  0.09864491    -0.92600
O372        O  0.40234591  0.96183364  0.08040718    -0.92900
O373        O  0.44261113  0.89937681  0.07667027    -0.91700
C374        C  0.52253831  0.01468397  0.11284135     1.17400
H375        H  0.42527000  0.03625230  0.02186318     0.33300
H376        H  0.50724855  0.90664905  0.01878628     0.44200
H377        H  0.56098526  0.05064787  0.03800372     0.37700
H378        H  0.53837363  0.03318942  0.90796953     0.34200
H379        H  0.40608290  0.89096462  0.02005038     0.26000
H380        H  0.57417470  0.92827778  0.88951102     0.31900
H381        H  0.62446841  0.01897867  0.91988229     0.37800
H382        H  0.41321420  0.97836343  0.09405050     0.32300
H383        H  0.43636805  0.08835247  0.09403275     0.31100
H384        H  0.49934943  0.12671763  0.07029457     0.32800
H385        H  0.61051164  0.12208158  0.96683222     0.31800
H386        H  0.46569676  0.89834697  0.08295798     0.35800
H387        H  0.53361772  0.89262180  0.08515105     0.28500
H388        H  0.45092259  0.09456080  0.89419663     0.32700
H389        H  0.59507294  0.12102717  0.90669169     0.35600
H390        H  0.41690054  0.05482318  0.08179372     0.28200
H391        H  0.56927208  0.90967561  0.08945828     0.41100
H392        H  0.49967221  0.87471804  0.96335127     0.31100
H393        H  0.43259086  0.90250420  0.98344522     0.38800
H394        H  0.58511185  0.11179020  0.00424245     0.30600
H395        H  0.58334567  0.97373024  0.88664703     0.30700
H396        H  0.49163977  0.10073485  0.88866273     0.30900
Zr397      Zr  0.20263360  0.52987047  0.96634520     2.17500
O398        O  0.17941734  0.58102457  0.92691260    -0.51400
O399        O  0.14321222  0.50225521  0.98340731    -0.74600
O400        O  0.20880453  0.51535159  0.90525495    -0.81400
O401        O  0.19370346  0.59943421  0.03668315    -0.83200
O402        O  0.24742652  0.46624217  0.89688175    -0.78800
O403        O  0.18165874  0.59331249  0.98330157    -0.90400
O404        O  0.13795932  0.44999871  0.02878098    -0.76400
O405        O  0.20897210  0.45940881  0.97619926    -0.85900
O406        O  0.18836539  0.50906274  0.02949531    -0.85600
O407        O  0.26287235  0.52082824  0.93983000    -0.72300
O408        O  0.24261953  0.56519867  0.99000091    -0.84500
Zr409      Zr  0.29490341  0.46181293  0.03719743     2.26400
Zr410      Zr  0.26919292  0.44997351  0.95091901     2.06300
Zr411      Zr  0.22879995  0.54308573  0.05301089     2.10000
Zr412      Zr  0.19546971  0.43874789  0.03925923     1.78800
O413        O  0.25608907  0.60207293  0.06494713    -0.93300
O414        O  0.17792014  0.37788554  0.02126989    -0.41100
O415        O  0.23518721  0.47230830  0.06402155    -0.77700
O416        O  0.25466646  0.42648491  0.01380982    -0.96400
O417        O  0.30951348  0.48384722  0.97462159    -0.89700
O418        O  0.28873239  0.53224225  0.02818887    -0.92500
C419        C  0.12539182  0.47500303  0.00707232     1.01200
C420        C  0.18039693  0.61191948  0.00978642     1.14200
C421        C  0.22653728  0.49176036  0.88571755     1.04900
O422        O  0.24806251  0.38818817  0.93744160    -0.94700
O423        O  0.30860226  0.39739360  0.96325274    -0.90400
O424        O  0.32227491  0.40325960  0.01593544    -0.83600
C425        C  0.32427627  0.38610482  0.98854185     1.11600
O426        O  0.29668556  0.61211846  0.92155481    -0.96700
Zr427      Zr  0.30239523  0.55396612  0.96537389     1.88900
O428        O  0.35343697  0.49135045  0.02419835    -0.73300
O429        O  0.32223536  0.45667490  0.90416657    -0.52600
O430        O  0.34214078  0.55118617  0.90822806    -0.97200
O431        O  0.31615953  0.61602870  0.98413470    -0.54500
O432        O  0.35912300  0.54333602  0.97885493    -0.73800
C433        C  0.37142926  0.51941758  0.00160695     0.98500
O434        O  0.31625139  0.40823963  0.07599608    -0.62600
O435        O  0.17881421  0.54206163  0.10287032    -0.57400
O436        O  0.28576369  0.47213184  0.09903011    -0.94100
O437        O  0.24768144  0.52196235  0.10828481    -0.92600
O438        O  0.15757480  0.43695497  0.09811987    -0.92900
O439        O  0.20425108  0.37985293  0.08068251    -0.91700
C440        C  0.26767980  0.49491128  0.11891454     1.17400
H441        H  0.16497803  0.51613595  0.03987455     0.33300
H442        H  0.25736059  0.39800962  0.01878730     0.44200
H443        H  0.30374967  0.54486555  0.04002734     0.37700
H444        H  0.26834110  0.53106515  0.91466420     0.34200
H445        H  0.15331602  0.37254797  0.03425132     0.26000
H446        H  0.31896313  0.43729262  0.88863414     0.31900
H447        H  0.36296981  0.56744278  0.90823309     0.37800
H448        H  0.15212757  0.46516079  0.09971674     0.32300
H449        H  0.18337850  0.56472113  0.11450561     0.31100
H450        H  0.24196311  0.60688890  0.08817896     0.32800
H451        H  0.33838137  0.62617773  0.96764582     0.31800
H452        H  0.22062187  0.38904848  0.09395804     0.35800
H453        H  0.33230038  0.42105856  0.08752710     0.28500
H454        H  0.16249078  0.56710044  0.91721921     0.32700
H455        H  0.32056979  0.62359015  0.91141836     0.35600
H456        H  0.15879872  0.55025921  0.09209886     0.28200
H457        H  0.29596654  0.39810249  0.09540158     0.41100
H458        H  0.24570146  0.36879583  0.95974640     0.31100
H459        H  0.17668814  0.38576406  0.99602113     0.38800
H460        H  0.32257035  0.60804856  0.00736154     0.30600
H461        H  0.32107926  0.48319246  0.88980558     0.30700
H462        H  0.19901056  0.58996954  0.90633796     0.30900
Zr463      Zr  0.71631272  0.54535621  0.95612880     2.17500
O464        O  0.72243980  0.60367327  0.90941597    -0.51400
O465        O  0.65299113  0.53660587  0.96597896    -0.74600
O466        O  0.71709170  0.52668844  0.89785880    -0.81400
O467        O  0.70729549  0.61086064  0.02837246    -0.83200
O468        O  0.74440603  0.46787452  0.89559762    -0.78800
O469        O  0.69815530  0.60944026  0.97294470    -0.90400
O470        O  0.63559437  0.48739166  0.01366837    -0.76400
O471        O  0.70720595  0.47471526  0.96933659    -0.85900
O472        O  0.69522009  0.52950456  0.01905854    -0.85600
O473        O  0.77257247  0.51817675  0.93606746    -0.72300
O474        O  0.76036031  0.56928173  0.98255393    -0.84500
Zr475      Zr  0.78596207  0.45515156  0.03967881     2.26400
Zr476      Zr  0.76320651  0.44706701  0.95109681     2.06300
Zr477      Zr  0.73907686  0.55217515  0.04560593     2.10000
Zr478      Zr  0.68653647  0.45916704  0.03217466     1.78800
O479        O  0.77323415  0.60971471  0.05055697    -0.93300
O480        O  0.66085924  0.40372005  0.01285414    -0.41100
O481        O  0.72989599  0.48147842  0.05986669    -0.77700
O482        O  0.74188432  0.42996908  0.01417448    -0.96400
O483        O  0.80719224  0.47057368  0.97694146    -0.89700
O484        O  0.79505465  0.52565795  0.02646408    -0.92500
C485        C  0.62944738  0.51494353  0.98946525     1.01200
C486        C  0.69590587  0.62585841  0.00082896     1.14200
C487        C  0.72909084  0.49770969  0.88156171     1.04900
O488        O  0.72831049  0.38998316  0.94647008    -0.94700
O489        O  0.79607499  0.38860629  0.96896796    -0.90400
O490        O  0.81093097  0.39487631  0.02104089    -0.83600
C491        C  0.81139638  0.37669653  0.99459836     1.11600
O492        O  0.82158795  0.60285744  0.92116218    -0.96700
Zr493      Zr  0.81586518  0.54085349  0.96361344     1.88900
O494        O  0.84844040  0.46430777  0.03091894    -0.73300
O495        O  0.80914981  0.43757712  0.90011830    -0.52600
O496        O  0.85331597  0.52897698  0.90773055    -0.97200
O497        O  0.84879947  0.59252221  0.98052119    -0.54500
O498        O  0.86643183  0.50938641  0.98049878    -0.73800
C499        C  0.87227687  0.48367083  0.00621192     0.98500
O500        O  0.77573396  0.39896065  0.08872220    -0.62600
O501        O  0.69344287  0.55872276  0.09773726    -0.57400
O502        O  0.78777582  0.47402207  0.09668651    -0.94100
O503        O  0.75662452  0.53004360  0.10161265    -0.92600
O504        O  0.64780884  0.47218449  0.08694077    -0.92900
O505        O  0.67395828  0.40140236  0.07933076    -0.91700
C506        C  0.77423038  0.50135934  0.11410032     1.17400
H507        H  0.67375840  0.54269891  0.02692294     0.33300
H508        H  0.73926898  0.40136774  0.02095216     0.44200
H509        H  0.81162362  0.53450566  0.03879952     0.37700
H510        H  0.78056484  0.52590894  0.91060892     0.34200
H511        H  0.63747182  0.39881462  0.02895580     0.26000
H512        H  0.80815824  0.40870897  0.89900304     0.31900
H513        H  0.87481461  0.54529035  0.90506531     0.37800
H514        H  0.62398149  0.46646008  0.08417715     0.32300
H515        H  0.69773412  0.58545655  0.10324373     0.31100
H516        H  0.76092787  0.61826329  0.07304489     0.32800
H517        H  0.86006722  0.57881520  0.99926866     0.31800
H518        H  0.69458448  0.39980988  0.09010986     0.35800
H519        H  0.75631025  0.40688106  0.10696669     0.28500
H520        H  0.70382089  0.60066020  0.89649128     0.32700
H521        H  0.84689845  0.60954270  0.91350363     0.35600
H522        H  0.67154629  0.56090284  0.08909809     0.28200
H523        H  0.76519490  0.37743246  0.07970803     0.41100
H524        H  0.74514753  0.37296582  0.93321291     0.31100
H525        H  0.65603870  0.41498056  0.98943129     0.38800
H526        H  0.83079558  0.60878103  0.99319888     0.30600
H527        H  0.83119608  0.44185728  0.90750288     0.30700
H528        H  0.74453287  0.60022419  0.89232229     0.30900
C529        C  0.46556267  0.55877528  0.98529072    -0.22600
C530        C  0.48214688  0.52355896  0.99505177     0.09400
C531        C  0.46223708  0.48794030  0.00894208     0.09800
C532        C  0.42611325  0.48806859  0.01185896    -0.17500
C533        C  0.40928150  0.52287748  0.00079019    -0.27900
C534        C  0.42931373  0.55907376  0.98807927     0.18100
C535        C  0.52031945  0.52478190  0.99180311     0.12100
C536        C  0.47918059  0.44964474  0.02028568    -0.12200
H537        H  0.41109189  0.46042598  0.02211554     0.12400
C538        C  0.41291577  0.59837146  0.97854187    -0.23100
H539        H  0.48115661  0.58613694  0.97542353     0.08000
C540        C  0.54388646  0.51830282  0.96037171     0.04400
C541        C  0.57981317  0.51738262  0.95953018    -0.20300
C542        C  0.59239529  0.52222499  0.98962886    -0.12600
C543        C  0.56868903  0.53019046  0.02067624     0.13100
C544        C  0.53294766  0.53123493  0.02132591    -0.23000
C545        C  0.53097511  0.51132752  0.92818406    -0.06100
H546        H  0.59797762  0.51120389  0.93586484     0.14600
C547        C  0.58003706  0.53804857  0.05353858    -0.16300
H548        H  0.51468362  0.53662524  0.04524733     0.08900
H549        H  0.40167402  0.59810899  0.95488527     0.06800
H550        H  0.43234152  0.62361812  0.97175153     0.08000
H551        H  0.39231006  0.60420097  0.00152388     0.07000
H552        H  0.49250745  0.45330363  0.04192967     0.01900
H553        H  0.49860705  0.44173433  0.99729910     0.02400
H554        H  0.45979791  0.42444901  0.03030330     0.05900
H555        H  0.55281147  0.50646516  0.90591314     0.04900
H556        H  0.51661709  0.53762438  0.91881193    -0.00900
H557        H  0.51321017  0.48455931  0.93514750     0.00600
H558        H  0.57011814  0.56715713  0.06027784     0.04300
H559        H  0.60873051  0.53956840  0.05013224     0.06200
H560        H  0.56905382  0.51417672  0.07624203     0.07100
C561        C  0.03128450  0.50311801  0.01373124    -0.22600
C562        C  0.01559158  0.46601868  0.01464239     0.09400
C563        C  0.03563950  0.43157667  0.01427555     0.09800
C564        C  0.07161460  0.43533917  0.01187426    -0.17500
C565        C  0.08755549  0.47272683  0.01021816    -0.27900
C566        C  0.06691195  0.50687217  0.01245732     0.18100
C567        C  0.97847582  0.46507997  0.01361160     0.12100
C568        C  0.01907082  0.39116221  0.01629954    -0.12200
H569        H  0.08744007  0.40914332  0.01084694     0.12400
C570        C  0.08090688  0.54729190  0.01519884    -0.23100
H571        H  0.01542986  0.52932439  0.01445123     0.08000
C572        C  0.95193485  0.46361668  0.04468617     0.04400
C573        C  0.91733886  0.46874083  0.04147316    -0.20300
C574        C  0.90896496  0.47614454  0.00784162    -0.12600
C575        C  0.93572092  0.47609436  0.97676972     0.13100
C576        C  0.97014464  0.47037204  0.98019692    -0.23000
C577        C  0.96023166  0.45752944  0.08103654    -0.06100
H578        H  0.89690218  0.46833970  0.06528950     0.14600
C579        C  0.92849066  0.48169147  0.93992992    -0.16300
H580        H  0.99096875  0.47138941  0.95658554     0.08900
H581        H  0.06518615  0.55771472  0.03923247     0.06800
H582        H  0.07882692  0.56900724  0.99130684     0.08000
H583        H  0.10831348  0.54728179  0.01796510     0.07000
H584        H  0.00700397  0.39101632  0.99313278     0.01900
H585        H  0.99861771  0.38411951  0.04124591     0.02400
H586        H  0.03848346  0.36729125  0.01619321     0.05900
H587        H  0.93626074  0.45649583  0.10254128     0.04900
H588        H  0.97749684  0.48239953  0.08307083    -0.00900
H589        H  0.97362974  0.42895219  0.08545285     0.00600
H590        H  0.95216811  0.47746725  0.91940364     0.04300
H591        H  0.91986650  0.51241839  0.93279103     0.06200
H592        H  0.90814702  0.45968258  0.93883163     0.07100
C593        C  0.39236876  0.30771291  0.99787313    -0.22600
C594        C  0.37640834  0.27520043  0.98900583     0.09400
C595        C  0.34416999  0.27954018  0.97888717     0.09800
C596        C  0.32859033  0.31669494  0.97764089    -0.17500
C597        C  0.34420427  0.34934128  0.98695370    -0.27900
C598        C  0.37694405  0.34502573  0.99649866     0.18100
C599        C  0.39401402  0.23680870  0.99005042     0.12100
C600        C  0.32605493  0.24484246  0.96985982    -0.12200
H601        H  0.30348049  0.31992378  0.97047087     0.12400
C602        C  0.39706170  0.37914855  0.00396588    -0.23100
H603        H  0.41731875  0.30406440  0.00535679     0.08000
C604        C  0.42128353  0.22956937  0.96176044     0.04400
C605        C  0.43608583  0.19190944  0.96324774    -0.20300
C606        C  0.42394309  0.16152433  0.99225699    -0.12600
C607        C  0.39587044  0.16855146  0.02004235     0.13100
C608        C  0.38186613  0.20652566  0.01900832    -0.23000
C609        C  0.43450972  0.26145359  0.93001558    -0.06100
H610        H  0.45753096  0.18629149  0.94197113     0.14600
C611        C  0.37879836  0.13626339  0.05003541    -0.16300
H612        H  0.36046062  0.21219700  0.04031763     0.08900
H613        H  0.42385728  0.38122474  0.98689691     0.06800
H614        H  0.39886764  0.37384302  0.03234171     0.08000
H615        H  0.38534506  0.40840822  0.99800444     0.07000
H616        H  0.31961269  0.22089609  0.99345203     0.01900
H617        H  0.34333498  0.23293926  0.94752114     0.02400
H618        H  0.30136468  0.25365281  0.96177003     0.05900
H619        H  0.45581665  0.25068444  0.91020829     0.04900
H620        H  0.44481748  0.28761427  0.93875211    -0.00900
H621        H  0.41290540  0.27088316  0.91669550     0.00600
H622        H  0.38285047  0.14322840  0.07572782     0.04300
H623        H  0.38879036  0.10630454  0.04657317     0.06200
H624        H  0.35034028  0.13469492  0.05118774     0.07100
C625        C  0.64510509  0.81015318  0.00587439    -0.22600
C626        C  0.62863905  0.77746446  0.99779721     0.09400
C627        C  0.59578609  0.78169692  0.98902324     0.09800
C628        C  0.58018336  0.81884097  0.98818569    -0.17500
C629        C  0.59652990  0.85179418  0.99617777    -0.27900
C630        C  0.62968321  0.84751124  0.00478238     0.18100
C631        C  0.64643429  0.73907887  0.99829205     0.12100
C632        C  0.57718177  0.74700344  0.98065288    -0.12200
H633        H  0.55475751  0.82205750  0.98172263     0.12400
C634        C  0.65027814  0.88165154  0.01139843    -0.23100
H635        H  0.67051104  0.80664916  0.01235642     0.08000
C636        C  0.67131848  0.73083807  0.96846767     0.04400
C637        C  0.68697604  0.69358765  0.97000768    -0.20300
C638        C  0.67893758  0.66485402  0.00104962    -0.12600
C639        C  0.65419295  0.67355722  0.03109316     0.13100
C640        C  0.63800142  0.71046153  0.02912499    -0.23000
C641        C  0.68118644  0.76132788  0.93507536    -0.06100
H642        H  0.70591375  0.68702703  0.94701645     0.14600
C643        C  0.64413615  0.64400228  0.06507419    -0.16300
H644        H  0.61875209  0.71722190  0.05181116     0.08900
H645        H  0.67652770  0.88415271  0.99320528     0.06800
H646        H  0.65339305  0.87603051  0.03935816     0.08000
H647        H  0.63801448  0.91071747  0.00639780     0.07000
H648        H  0.57153433  0.72302369  0.00425950     0.01900
H649        H  0.59379037  0.73522172  0.95784945     0.02400
H650        H  0.55206606  0.75576201  0.97348193     0.05900
H651        H  0.70109687  0.75010440  0.91423820     0.04900
H652        H  0.69214285  0.78873836  0.94125251    -0.00900
H653        H  0.65777085  0.76894519  0.92413097     0.00600
H654        H  0.66683701  0.63929894  0.07761483     0.04300
H655        H  0.63518754  0.61529098  0.05936014     0.06200
H656        H  0.62268406  0.65481980  0.08469847     0.07100
C657        C  0.78842657  0.00807209  0.03447366    -0.22600
C658        C  0.77430805  0.00170944  0.00592482     0.09400
C659        C  0.79618884  0.99400277  0.97399955     0.09800
C660        C  0.83225232  0.99226786  0.97153971    -0.17500
C661        C  0.84641364  0.99793990  0.00043130    -0.27900
C662        C  0.82429920  0.00647857  0.03218334     0.18100
C663        C  0.73653304  0.00518252  0.00960779     0.12100
C664        C  0.78137330  0.98762670  0.94276593    -0.12200
H665        H  0.84938149  0.98604420  0.94725971     0.12400
C666        C  0.83734539  0.01515964  0.06389249    -0.23100
H667        H  0.77130028  0.01479545  0.05858662     0.08000
C668        C  0.71326231  0.97280072  0.02563139     0.04400
C669        C  0.67759305  0.97757290  0.02736951    -0.20300
C670        C  0.66486683  0.01369373  0.01265090    -0.12600
C671        C  0.68840165  0.04696594  0.99877934     0.13100
C672        C  0.72397781  0.04208023  0.99749222    -0.23000
C673        C  0.72618639  0.93322230  0.04034599    -0.06100
H674        H  0.65975573  0.95254286  0.03943144     0.14600
C675        C  0.67665212  0.08793310  0.98596612    -0.16300
H676        H  0.74233059  0.06701134  0.98640811     0.08900
H677        H  0.82655231  0.99215102  0.08738133     0.06800
H678        H  0.82847416  0.04485259  0.07003047     0.08000
H679        H  0.86603806  0.01576113  0.05966044     0.07000
H680        H  0.76785199  0.01473426  0.93359692     0.01900
H681        H  0.76243535  0.96189178  0.95077925     0.02400
H682        H  0.80207888  0.98141618  0.92001334     0.05900
H683        H  0.70443683  0.91105858  0.05218654     0.04900
H684        H  0.74012202  0.93713754  0.06147904    -0.00900
H685        H  0.74430447  0.92107245  0.01871069     0.00600
H686        H  0.69833587  0.11062313  0.97958305     0.04300
H687        H  0.65577525  0.09725126  0.00705721     0.06200
H688        H  0.66720062  0.08803719  0.96119742     0.07100
C689        C  0.21746443  0.00001379  0.02986551    -0.22600
C690        C  0.23970565  0.00884609  0.99600933     0.09400
C691        C  0.22572134  0.02013136  0.96578492     0.09800
C692        C  0.18953309  0.02173157  0.96998463    -0.17500
C693        C  0.16691280  0.01254748  0.00376829    -0.27900
C694        C  0.18112701  0.00238953  0.03431338     0.18100
C695        C  0.27773623  0.00662030  0.99251683     0.12100
C696        C  0.24903299  0.03025650  0.92908232    -0.12200
H697        H  0.17880750  0.02956503  0.94654448     0.12400
C698        C  0.15935353  0.99578366  0.07192965    -0.23100
H699        H  0.22860780  0.99203745  0.05302183     0.08000
C700        C  0.29794932  0.04008253  0.99423443     0.04400
C701        C  0.33417900  0.03707886  0.98926237    -0.20300
C702        C  0.35047289  0.00136691  0.98271749    -0.12600
C703        C  0.33020235  0.96795924  0.98053225     0.13100
C704        C  0.29394091  0.97103593  0.98557353    -0.23000
C705        C  0.28124710  0.07879094  0.00148724    -0.06100
H706        H  0.34978617  0.06234802  0.99159044     0.14600
C707        C  0.34592839  0.92907051  0.97226525    -0.16300
H708        H  0.27820226  0.94567060  0.98370711     0.08900
H709        H  0.16923040  0.01599859  0.08753000     0.06800
H710        H  0.16145271  0.96445600  0.08458661     0.08000
H711        H  0.13148558  0.00229179  0.07372070     0.07000
H712        H  0.26518353  0.00438193  0.92272707     0.01900
H713        H  0.26645062  0.05625296  0.92797017     0.02400
H714        H  0.23375320  0.03789904  0.90826928     0.05900
H715        H  0.30088127  0.10186360  0.00221978     0.04900
H716        H  0.26230342  0.07386266  0.02761486    -0.00900
H717        H  0.26736143  0.09041130  0.98026911     0.00600
H718        H  0.33619258  0.90496418  0.99515987     0.04300
H719        H  0.37481869  0.93015433  0.96650210     0.06200
H720        H  0.33811693  0.92149817  0.94836259     0.07100
C721        C  0.87976884  0.20366331  0.03240674    -0.22600
C722        C  0.88339444  0.22792437  0.99910393     0.09400
C723        C  0.90574105  0.21681843  0.96892064     0.09800
C724        C  0.92316677  0.18083585  0.97246375    -0.17500
C725        C  0.91959951  0.15616215  0.00572838    -0.27900
C726        C  0.89789203  0.16804461  0.03624582     0.18100
C727        C  0.86482842  0.26587786  0.99671432     0.12100
C728        C  0.91149443  0.24322092  0.93309230    -0.12200
H729        H  0.94013033  0.17218738  0.94912127     0.12400
C730        C  0.89297122  0.14311019  0.07267781    -0.23100
H731        H  0.86282996  0.21286065  0.05550233     0.08000
C732        C  0.83125144  0.26829807  0.98935414     0.04400
C733        C  0.81470213  0.30510746  0.98783795    -0.20300
C734        C  0.83084247  0.33925812  0.99407304    -0.12600
C735        C  0.86489414  0.33675679  0.00075590     0.13100
C736        C  0.88142852  0.30006060  0.00188073    -0.23000
C737        C  0.81289639  0.23199897  0.98340890    -0.06100
H738        H  0.78872855  0.30703814  0.98262969     0.14600
C739        C  0.88439072  0.37275733  0.00581636    -0.16300
H740        H  0.90743338  0.29786677  0.00702004     0.08900
H741        H  0.87394415  0.15621277  0.09300236     0.06800
H742        H  0.91810868  0.14121846  0.08124497     0.08000
H743        H  0.88301963  0.11277983  0.07206850     0.07000
H744        H  0.92227514  0.27279695  0.93482515     0.01900
H745        H  0.88641289  0.24729768  0.92456516     0.02400
H746        H  0.93014040  0.23029953  0.91233877     0.05900
H747        H  0.78657686  0.23892543  0.97849046     0.04900
H748        H  0.80980069  0.20845982  0.00726053    -0.00900
H749        H  0.82836638  0.22033909  0.95995048     0.00600
H750        H  0.87114882  0.38353458  0.03061535     0.04300
H751        H  0.88575220  0.39683504  0.98264627     0.06200
H752        H  0.91153202  0.36583945  0.00810094     0.07100
C753        C  0.13772156  0.80022237  0.00906294    -0.22600
C754        C  0.12124857  0.76897694  0.99877420     0.09400
C755        C  0.09078277  0.77637062  0.98560635     0.09800
C756        C  0.07753358  0.81492139  0.98284629    -0.17500
C757        C  0.09347980  0.84621994  0.99377782    -0.27900
C758        C  0.12446563  0.83886187  0.00652027     0.18100
C759        C  0.13655903  0.72881170  0.00151856     0.12100
C760        C  0.07173759  0.74329228  0.97535543    -0.12200
H761        H  0.05377585  0.82030562  0.97327751     0.12400
C762        C  0.14504413  0.87096241  0.01646661    -0.23100
H763        H  0.16136656  0.79449013  0.01878434     0.08000
C764        C  0.16138595  0.71763450  0.97293525     0.04400
C765        C  0.17448461  0.67901994  0.97629076    -0.20300
C766        C  0.16416593  0.65155113  0.00793801    -0.12600
C767        C  0.13940490  0.66288404  0.03672818     0.13100
C768        C  0.12577970  0.70136507  0.03304469    -0.23000
C769        C  0.17439641  0.74664404  0.93905733    -0.06100
H770        H  0.19359043  0.67049405  0.95431516     0.14600
C771        C  0.12651108  0.63429067  0.07090089    -0.16300
H772        H  0.10661073  0.71016465  0.05482742     0.08900
H773        H  0.17252316  0.87159470  0.00121204     0.06800
H774        H  0.14468489  0.86432457  0.04536835     0.08000
H775        H  0.13523403  0.90126425  0.01032496     0.07000
H776        H  0.06288306  0.71977426  0.99895652     0.01900
H777        H  0.08929852  0.73010203  0.95403593     0.02400
H778        H  0.04845073  0.75416869  0.96538211     0.05900
H779        H  0.19388158  0.73314047  0.91940999     0.04900
H780        H  0.18699055  0.77310219  0.94510088    -0.00900
H781        H  0.15228373  0.75639200  0.92664836     0.00600
H782        H  0.14831449  0.62658983  0.08433240     0.04300
H783        H  0.11538190  0.60675133  0.06511461     0.06200
H784        H  0.10587451  0.64741669  0.08973013     0.07100
C785        C  0.69524095  0.48408101  0.72405148    -0.22600
C786        C  0.71630393  0.51113652  0.73429409     0.09400
C787        C  0.73706064  0.53995640  0.70813744     0.09800
C788        C  0.73697921  0.54044431  0.67210790    -0.17500
C789        C  0.71651162  0.51282690  0.66144092    -0.27900
C790        C  0.69496644  0.48452053  0.68797632     0.18100
C791        C  0.71819527  0.50702031  0.77227811     0.12100
C792        C  0.75973689  0.56976998  0.71826621    -0.12200
H793        H  0.75356120  0.56213732  0.65204899     0.12400
C794        C  0.67285354  0.45349847  0.67863242    -0.23100
H795        H  0.67953863  0.46192491  0.74440992     0.08000
C796        C  0.69511375  0.52638090  0.79680146     0.04400
C797        C  0.69896521  0.52236610  0.83222844    -0.20300
C798        C  0.72546178  0.49932069  0.84387053    -0.12600
C799        C  0.74858965  0.47985624  0.81874244     0.13100
C800        C  0.74439669  0.48388334  0.78351060    -0.23000
C801        C  0.66664601  0.55148800  0.78538813    -0.06100
H802        H  0.68112727  0.53743010  0.85090029     0.14600
C803        C  0.77874772  0.45603053  0.82788538    -0.16300
H804        H  0.76209754  0.46937279  0.76424097     0.08900
H805        H  0.65229925  0.46822783  0.66617419     0.06800
H806        H  0.65962016  0.43233932  0.70257723     0.08000
H807        H  0.68937901  0.43590693  0.66001161     0.07000
H808        H  0.77933521  0.55396598  0.73151980     0.01900
H809        H  0.74338921  0.58755164  0.73681524     0.02400
H810        H  0.77388348  0.59071569  0.69461892     0.05900
H811        H  0.65079564  0.56469104  0.80776235     0.04900
H812        H  0.64901181  0.53283578  0.77547893    -0.00900
H813        H  0.67824689  0.57620461  0.76375307     0.00600
H814        H  0.76897663  0.42959160  0.84835532     0.04300
H815        H  0.79466830  0.44472157  0.80441617     0.06200
H816        H  0.79617668  0.47515664  0.83757927     0.07100
C817        C  0.79365639  0.51871225  0.27585861    -0.22600
C818        C  0.77962763  0.48766758  0.26308368     0.09400
C819        C  0.76369390  0.45399941  0.28727486     0.09800
C820        C  0.76133979  0.45261770  0.32391766    -0.17500
C821        C  0.77447890  0.48418876  0.33694339    -0.27900
C822        C  0.79068357  0.51789941  0.31251652     0.18100
C823        C  0.77905148  0.49262049  0.22470617     0.12100
C824        C  0.74872670  0.41984799  0.27440150    -0.12200
H825        H  0.74869946  0.42701509  0.34258539     0.12400
C826        C  0.80284984  0.55483838  0.32387702    -0.23100
H827        H  0.80540487  0.54475209  0.25717812     0.08000
C828        C  0.75033492  0.50958022  0.21228076     0.04400
C829        C  0.74989215  0.51238395  0.17610777    -0.20300
C830        C  0.77757423  0.49879172  0.15173902    -0.12600
C831        C  0.80677008  0.48234116  0.16426190     0.13100
C832        C  0.80715482  0.47978435  0.20058819    -0.23000
C833        C  0.72015768  0.52490357  0.23724752    -0.06100
H834        H  0.72738322  0.52473250  0.16694541     0.14600
C835        C  0.83778138  0.46780280  0.13972920    -0.16300
H836        H  0.82923561  0.46714351  0.21040344     0.08900
H837        H  0.79021133  0.58127716  0.31196957     0.06800
H838        H  0.83157214  0.55893119  0.31431175     0.08000
H839        H  0.79610406  0.55425349  0.35298674     0.07000
H840        H  0.76950564  0.40731254  0.25530929     0.01900
H841        H  0.72752737  0.43041253  0.26089538     0.02400
H842        H  0.73773786  0.39554698  0.29672453     0.05900
H843        H  0.69965835  0.53695518  0.22327170     0.04900
H844        H  0.72958185  0.54919088  0.24909670    -0.00900
H845        H  0.70806226  0.50047806  0.25891558     0.00600
H846        H  0.85903131  0.45866849  0.15366996     0.04300
H847        H  0.84844036  0.49192397  0.11713779     0.06200
H848        H  0.83004454  0.44135015  0.12948940     0.07100
C849        C  0.19828914  0.48688492  0.72456487    -0.22600
C850        C  0.21693273  0.51472852  0.73667523     0.09400
C851        C  0.23695224  0.54538332  0.71177997     0.09800
C852        C  0.23844440  0.54692531  0.67520807    -0.17500
C853        C  0.22059737  0.51832967  0.66280823    -0.27900
C854        C  0.20029221  0.48768289  0.68804194     0.18100
C855        C  0.21817011  0.50849698  0.77501820     0.12100
C856        C  0.25685092  0.57633176  0.72385001    -0.12200
H857        H  0.25404473  0.57029784  0.65611032     0.12400
C858        C  0.18232035  0.45352071  0.67794329    -0.23100
H859        H  0.18346496  0.46298243  0.74374388     0.08000
C860        C  0.19071636  0.51889259  0.80164272     0.04400
C861        C  0.19390264  0.51272349  0.83742542    -0.20300
C862        C  0.22363750  0.49532695  0.84751220    -0.12600
C863        C  0.25056845  0.48354106  0.82038616     0.13100
C864        C  0.24743513  0.49061414  0.78475709    -0.23000
C865        C  0.15824535  0.53674497  0.79212452    -0.06100
H866        H  0.17293483  0.52148678  0.85761544     0.14600
C867        C  0.28339302  0.46448132  0.82790812    -0.16300
H868        H  0.26811812  0.48216418  0.76407069     0.08900
H869        H  0.15365213  0.45507480  0.68757880     0.06800
H870        H  0.19102369  0.42483129  0.69077069     0.08000
H871        H  0.18818456  0.45265002  0.64904964     0.07000
H872        H  0.27684873  0.56186015  0.73731544     0.01900
H873        H  0.23857569  0.59206677  0.74273751     0.02400
H874        H  0.27035409  0.59887942  0.70111100     0.05900
H875        H  0.13928194  0.54352768  0.81594931     0.04900
H876        H  0.14532775  0.51548445  0.77981163    -0.00900
H877        H  0.16518315  0.56487949  0.77291400     0.00600
H878        H  0.27692981  0.43542767  0.84584409     0.04300
H879        H  0.29738712  0.48492091  0.83992422     0.06200
H880        H  0.30153568  0.45835825  0.80328286     0.07100
C881        C  0.29966666  0.47438881  0.28134488    -0.22600
C882        C  0.26889715  0.47753062  0.26874840     0.09400
C883        C  0.23656822  0.47671503  0.29316524     0.09800
C884        C  0.23575453  0.47367559  0.32962415    -0.17500
C885        C  0.26657095  0.47205770  0.34277401    -0.27900
C886        C  0.29912143  0.47183560  0.31790011     0.18100
C887        C  0.27087341  0.48193778  0.22983183     0.12100
C888        C  0.20287373  0.48025471  0.28061057    -0.12200
H889        H  0.21057396  0.47369179  0.34777532     0.12400
C890        C  0.33356239  0.46933745  0.32897314    -0.23100
H891        H  0.32434717  0.47461187  0.26224973     0.08000
C892        C  0.27921689  0.51900769  0.20720805     0.04400
C893        C  0.27830079  0.52223946  0.17102465    -0.20300
C894        C  0.26944073  0.48918833  0.15690716    -0.12600
C895        C  0.26128989  0.45192774  0.17969689     0.13100
C896        C  0.26227098  0.44887466  0.21577643    -0.23000
C897        C  0.28830695  0.55528627  0.22145408    -0.06100
H898        H  0.28446166  0.55073206  0.15363811     0.14600
C899        C  0.25001495  0.41505773  0.16762672    -0.16300
H900        H  0.25545519  0.42059062  0.23336514     0.08900
H901        H  0.33815047  0.49618890  0.34039175     0.06800
H902        H  0.35578863  0.46796182  0.30602307     0.08000
H903        H  0.33372362  0.44197309  0.34875646     0.07000
H904        H  0.19949312  0.45493318  0.26675720     0.01900
H905        H  0.20330401  0.50870201  0.26196479     0.02400
H906        H  0.17988223  0.47993355  0.30310707     0.05900
H907        H  0.29316606  0.58214667  0.20045334     0.04900
H908        H  0.31225497  0.55008212  0.23197888    -0.00900
H909        H  0.26648666  0.56144207  0.24320939     0.00600
H910        H  0.26896764  0.39123496  0.17119280     0.04300
H911        H  0.24778663  0.42001305  0.13951864     0.06200
H912        H  0.22392392  0.40440583  0.18406275     0.07100
C913        C  0.45909834  0.52961245  0.50363464    -0.22600
C914        C  0.47765691  0.49720940  0.49192741     0.09400
C915        C  0.46059354  0.46787278  0.47947673     0.09800
C916        C  0.42503672  0.47155330  0.47917550    -0.17500
C917        C  0.40600733  0.50365611  0.49153548    -0.27900
C918        C  0.42363321  0.53361537  0.50321357     0.18100
C919        C  0.51480862  0.49422757  0.49379076     0.12100
C920        C  0.47975887  0.43223499  0.46742047    -0.12200
H921        H  0.41176328  0.44855071  0.47026307     0.12400
C922        C  0.40658392  0.57087924  0.51431156    -0.23100
H923        H  0.47255705  0.55223823  0.51284812     0.08000
C924        C  0.54181986  0.51037139  0.46477254     0.04400
C925        C  0.57656756  0.50734406  0.46821786    -0.20300
C926        C  0.58494565  0.48921953  0.50027097    -0.12600
C927        C  0.55764317  0.47291622  0.52929749     0.13100
C928        C  0.52293417  0.47554255  0.52555840    -0.23000
C929        C  0.53391766  0.53121362  0.43040659    -0.06100
H930        H  0.59730668  0.51988179  0.44589985     0.14600
C931        C  0.56476083  0.45167590  0.56387968    -0.16300
H932        H  0.50188842  0.46308539  0.54759440     0.08900
H933        H  0.42280886  0.59747301  0.49948105     0.06800
H934        H  0.40449071  0.57008709  0.54328218     0.08000
H935        H  0.38044971  0.57521302  0.50840912     0.07000
H936        H  0.48976425  0.41518441  0.48970054     0.01900
H937        H  0.50206564  0.44210511  0.44471077     0.02400
H938        H  0.46254550  0.41189595  0.45869381     0.05900
H939        H  0.55807757  0.54248000  0.41051063     0.04900
H940        H  0.51721736  0.55700560  0.43560559    -0.00900
H941        H  0.52003395  0.51033343  0.41864103     0.00600
H942        H  0.54046711  0.43870440  0.58262854     0.04300
H943        H  0.57642252  0.47287885  0.57725525     0.06200
H944        H  0.58275524  0.42695252  0.55865911     0.07100
C945        C  0.02648811  0.53914990  0.51929684    -0.22600
C946        C  0.01253836  0.51132672  0.50277288     0.09400
C947        C  0.03445076  0.48337201  0.48668412     0.09800
C948        C  0.06982407  0.48354896  0.48779213    -0.17500
C949        C  0.08412234  0.51101538  0.50461096    -0.27900
C950        C  0.06215674  0.53999055  0.51982603     0.18100
C951        C  0.97506953  0.51231858  0.50172502     0.12100
C952        C  0.02036349  0.45300028  0.46870012    -0.12200
H953        H  0.08638328  0.46168670  0.47566649     0.12400
C954        C  0.07532572  0.57351589  0.53503582    -0.23100
H955        H  0.00956827  0.56107490  0.53101900     0.08000
C956        C  0.94916704  0.49373350  0.53073912     0.04400
C957        C  0.91422702  0.49377964  0.52785545    -0.20300
C958        C  0.90452018  0.51129120  0.49636603    -0.12600
C959        C  0.93061674  0.53026370  0.46733574     0.13100
C960        C  0.96556585  0.53058005  0.47048631    -0.23000
C961        C  0.95851406  0.47295998  0.56438165    -0.06100
H962        H  0.89439995  0.47918903  0.55013211     0.14600
C963        C  0.92184919  0.55130741  0.43348358    -0.16300
H964        H  0.98573374  0.54480559  0.44834965     0.08900
H965        H  0.06473555  0.56925342  0.56427414     0.06800
H966        H  0.06634789  0.60235741  0.52280407     0.08000
H967        H  0.10409745  0.57632794  0.52948470     0.07000
H968        H  0.00951823  0.46834007  0.44632012     0.01900
H969        H  0.99944768  0.43427822  0.48818685     0.02400
H970        H  0.04096162  0.43303319  0.45773877     0.05900
H971        H  0.93510008  0.45972089  0.58441541     0.04900
H972        H  0.97135303  0.49455713  0.57641039    -0.00900
H973        H  0.97660425  0.44858634  0.55814998     0.00600
H974        H  0.94524862  0.56625442  0.41454035     0.04300
H975        H  0.90243700  0.57444553  0.43972865     0.06200
H976        H  0.91116870  0.52956795  0.41988916     0.07100
C977        C  0.49094886  0.02004545  0.77907670    -0.22600
C978        C  0.49714382  0.98293798  0.76811274     0.09400
C979        C  0.50147900  0.94949179  0.79300476     0.09800
C980        C  0.49878618  0.95381937  0.82870180    -0.17500
C981        C  0.49258817  0.99108925  0.84016891    -0.27900
C982        C  0.48872150  0.02467367  0.81467142     0.18100
C983        C  0.49981973  0.98007041  0.73014171     0.12100
C984        C  0.50996174  0.90953714  0.78163858    -0.12200
H985        H  0.50214836  0.92788942  0.84767271     0.12400
C986        C  0.48348903  0.06576730  0.82411252    -0.23100
H987        H  0.48817932  0.04563459  0.75947057     0.08000
C988        C  0.47083975  0.96859713  0.71784076     0.04400
C989        C  0.47471140  0.96651141  0.68152907    -0.20300
C990        C  0.50685166  0.97595052  0.65714079    -0.12600
C991        C  0.53606862  0.98691150  0.66981712     0.13100
C992        C  0.53194737  0.98925564  0.70609958    -0.23000
C993        C  0.43567915  0.95951841  0.74289135    -0.06100
H994        H  0.45218954  0.95864535  0.67194869     0.14600
C995        C  0.57225292  0.99500793  0.64653942    -0.16300
H996        H  0.55415233  0.99781233  0.71586573     0.08900
H997        H  0.45814925  0.06626834  0.84328759     0.06800
H998        H  0.48284819  0.08857355  0.80045753     0.08000
H999        H  0.50533586  0.07416681  0.83554752     0.07000
H1000       H  0.53486130  0.91217891  0.76124241     0.01900
H1001       H  0.48891248  0.89911233  0.77012862     0.02400
H1002       H  0.51287519  0.88653170  0.80438525     0.05900
H1003       H  0.41568992  0.95148504  0.72882450     0.04900
H1004       H  0.42684052  0.98607216  0.75533013    -0.00900
H1005       H  0.43734322  0.93414226  0.76414987     0.00600
H1006       H  0.58026837  0.02660929  0.64520247     0.04300
H1007       H  0.57464165  0.98876691  0.61914706     0.06200
H1008       H  0.59088177  0.97548175  0.65830230     0.07100
C1009       C  0.47475730  0.00523455  0.28399874    -0.22600
C1010       C  0.50869888  0.01304008  0.26314357     0.09400
C1011       C  0.53591801  0.02180353  0.27914931     0.09800
C1012       C  0.52857206  0.02267330  0.31578255    -0.17500
C1013       C  0.49470099  0.01461900  0.33695082    -0.27900
C1014       C  0.46727963  0.00596834  0.32080459     0.18100
C1015       C  0.51501077  0.01288053  0.22438435     0.12100
C1016       C  0.57283256  0.02941538  0.25772145    -0.12200
H1017       H  0.54967545  0.02880403  0.32816970     0.12400
C1018       C  0.42987263  0.99854677  0.34098452    -0.23100
H1019       H  0.45388739  0.99896630  0.27134602     0.08000
C1020       C  0.51794831  0.97702683  0.21026083     0.04400
C1021       C  0.52181332  0.97853190  0.17343468    -0.20300
C1022       C  0.52383206  0.01518597  0.15038338    -0.12600
C1023       C  0.52389864  0.05116076  0.16448693     0.13100
C1024       C  0.51844730  0.04945532  0.20141783    -0.23000
C1025       C  0.51729743  0.93734090  0.23402429    -0.06100
H1026       H  0.52232738  0.95092078  0.16275578     0.14600
C1027       C  0.53087740  0.09175638  0.14162939    -0.16300
H1028       H  0.51741618  0.07692489  0.21240856     0.08900
H1029       H  0.42171253  0.96731598  0.34095407     0.06800
H1030       H  0.41283680  0.01903367  0.32773596     0.08000
H1031       H  0.42538153  0.00382153  0.36888457     0.07000
H1032       H  0.57414992  0.05609234  0.23688116     0.01900
H1033       H  0.58173451  0.00315915  0.24485309     0.02400
H1034       H  0.59108987  0.03478538  0.27465695     0.05900
H1035       H  0.52016876  0.91224222  0.21862321     0.04900
H1036       H  0.49222778  0.93268083  0.25411856    -0.00900
H1037       H  0.53915974  0.93663969  0.24790444     0.00600
H1038       H  0.50698053  0.10952612  0.14597237     0.04300
H1039       H  0.53979611  0.09043682  0.11287674     0.06200
H1040       H  0.55209328  0.10753887  0.14919115     0.07100
C1041       C  0.35832932  0.79835536  0.52027166    -0.22600
C1042       C  0.37606369  0.76335058  0.52804246     0.09400
C1043       C  0.40899960  0.76571160  0.53647433     0.09800
C1044       C  0.42389152  0.80331871  0.53608750    -0.17500
C1045       C  0.40683602  0.83854558  0.52680973    -0.27900
C1046       C  0.37320630  0.83598167  0.51962657     0.18100
C1047       C  0.35981992  0.72468628  0.52631244     0.12100
C1048       C  0.42860409  0.72861224  0.54523223    -0.12200
H1049       H  0.44961233  0.80530402  0.54162763     0.12400
C1050       C  0.35201632  0.87204377  0.51172213    -0.23100
H1051       H  0.33276697  0.79628484  0.51435885     0.08000
C1052       C  0.33547956  0.70389688  0.55564711     0.04400
C1053       C  0.31922202  0.66854229  0.55204431    -0.20300
C1054       C  0.32670494  0.65370476  0.51970230    -0.12600
C1055       C  0.35227234  0.67371940  0.49075041     0.13100
C1056       C  0.36821720  0.70924196  0.49434564    -0.23000
C1057       C  0.32640225  0.71937231  0.59052968    -0.06100
H1058       H  0.29979268  0.65304854  0.57422449     0.14600
C1059       C  0.36399330  0.65803476  0.45609734    -0.16300
H1060       H  0.38736986  0.72503682  0.47205274     0.08900
H1061       H  0.32645928  0.86910230  0.53113500     0.06800
H1062       H  0.34732537  0.87395595  0.48446409     0.08000
H1063       H  0.36470584  0.90037463  0.51368280     0.07000
H1064       H  0.43365386  0.71204895  0.52236578     0.01900
H1065       H  0.41297001  0.70915941  0.56903239     0.02400
H1066       H  0.45409682  0.73576347  0.55100673     0.05900
H1067       H  0.30746476  0.69907908  0.61099947     0.04900
H1068       H  0.31464549  0.74906764  0.58661973    -0.00900
H1069       H  0.35032320  0.72220310  0.60077022     0.00600
H1070       H  0.35721171  0.67935750  0.43409417     0.04300
H1071       H  0.35220059  0.62837490  0.45649649     0.06200
H1072       H  0.39273427  0.65481712  0.45044319     0.07100
C1073       C  0.62379528  0.21224888  0.43654494    -0.22600
C1074       C  0.62273607  0.22898488  0.46725243     0.09400
C1075       C  0.60190826  0.21071873  0.50008689     0.09800
C1076       C  0.58304208  0.17538550  0.50164848    -0.17500
C1077       C  0.58431653  0.15780515  0.47108099    -0.27900
C1078       C  0.60494471  0.17679839  0.43792771     0.18100
C1079       C  0.64334987  0.26600164  0.46460170     0.12100
C1080       C  0.59961751  0.22857470  0.53347837    -0.12200
H1081       H  0.56711854  0.16145037  0.52702176     0.12400
C1082       C  0.60857530  0.15943176  0.40413426    -0.23100
H1083       H  0.63981083  0.22684938  0.41145790     0.08000
C1084       C  0.67756568  0.26503263  0.47017812     0.04400
C1085       C  0.69481016  0.30093033  0.47067301    -0.20300
C1086       C  0.67844016  0.33778043  0.46613460    -0.12600
C1087       C  0.64416538  0.33846121  0.45992726     0.13100
C1088       C  0.62732736  0.30252639  0.45881142    -0.23000
C1089       C  0.69545920  0.22605005  0.47642421    -0.06100
H1090       H  0.72093567  0.30009870  0.47551914     0.14600
C1091       C  0.62413092  0.37633711  0.45671022    -0.16300
H1092       H  0.60090066  0.30265788  0.45479338     0.08900
H1093       H  0.62710997  0.17739550  0.38143293     0.06800
H1094       H  0.58300655  0.15874201  0.39658056     0.08000
H1095       H  0.61869927  0.12889747  0.40803592     0.07000
H1096       H  0.58905256  0.25894821  0.52989839     0.01900
H1097       H  0.62591692  0.23052578  0.53923172     0.02400
H1098       H  0.58226128  0.21036894  0.55695700     0.05900
H1099       H  0.72214526  0.23056429  0.48053451     0.04900
H1100       H  0.69759071  0.21062863  0.45303245    -0.00900
H1101       H  0.68020359  0.20662675  0.50047241     0.00600
H1102       H  0.59707537  0.37062559  0.45415538     0.04300
H1103       H  0.63718850  0.39733570  0.43263102     0.06200
H1104       H  0.62240537  0.39039192  0.48084567     0.07100
C1105       C  0.00167044  0.03719342  0.71165786    -0.22600
C1106       C  0.98036855  0.00705398  0.73529921     0.09400
C1107       C  0.96071138  0.98101940  0.72188559     0.09800
C1108       C  0.96317563  0.98541038  0.68498838    -0.17500
C1109       C  0.98515211  0.01498658  0.66099922    -0.27900
C1110       C  0.00460496  0.04134789  0.67465018     0.18100
C1111       C  0.98040088  0.00233540  0.77382391     0.12100
C1112       C  0.93766977  0.94816634  0.74644278    -0.12200
H1113       H  0.94839394  0.96496390  0.67474394     0.12400
C1114       C  0.02797448  0.07434710  0.65065629    -0.23100
H1115       H  0.01656929  0.05713739  0.72228734     0.08000
C1116       C  0.00801868  0.98378748  0.78714925     0.04400
C1117       C  0.00805792  0.98156656  0.82339709    -0.20300
C1118       C  0.98108868  0.99750338  0.84703103    -0.12600
C1119       C  0.95261959  0.01481660  0.83361827     0.13100
C1120       C  0.95287658  0.01720896  0.79716497    -0.23000
C1121       C  0.03752351  0.96634180  0.76300614    -0.06100
H1122       H  0.02984571  0.96793480  0.83308054     0.14600
C1123       C  0.92139877  0.02998638  0.85731343    -0.16300
H1124       H  0.93159299  0.03106347  0.78666071     0.08900
H1125       H  0.05022530  0.06157869  0.63353692     0.06800
H1126       H  0.03900214  0.09374510  0.66615710     0.08000
H1127       H  0.01292752  0.09334103  0.63376189     0.07000
H1128       H  0.91747846  0.96112411  0.76579817     0.01900
H1129       H  0.95363883  0.92773453  0.76115713     0.02400
H1130       H  0.92416158  0.93038373  0.73158423     0.05900
H1131       H  0.05681243  0.95233595  0.77774330     0.04900
H1132       H  0.05140058  0.99011638  0.74166271    -0.00900
H1133       H  0.02703284  0.94314336  0.75070477     0.00600
H1134       H  0.92900070  0.05691068  0.86685670     0.04300
H1135       H  0.91044297  0.00641415  0.88029317     0.06200
H1136       H  0.90036446  0.03852612  0.84291419     0.07100
C1137       C  0.00435320  0.95167534  0.21724540    -0.22600
C1138       C  0.01501906  0.98293920  0.23226602     0.09400
C1139       C  0.02783529  0.01924079  0.21018983     0.09800
C1140       C  0.02923877  0.02362235  0.17343480    -0.17500
C1141       C  0.01835021  0.99236327  0.15835468    -0.27900
C1142       C  0.00547787  0.95596768  0.18064092     0.18100
C1143       C  0.01196538  0.97705985  0.27134038     0.12100
C1144       C  0.03966385  0.05333653  0.22555386    -0.12200
H1145       H  0.03887648  0.05152120  0.15636966     0.12400
C1146       C  0.99124272  0.92159915  0.16728814    -0.23100
H1147       H  0.99432779  0.92395211  0.23440858     0.08000
C1148       C  0.98027003  0.98264411  0.29500582     0.04400
C1149       C  0.97875152  0.97706222  0.33183239    -0.20300
C1150       C  0.00817594  0.96560780  0.34574138    -0.12600
C1151       C  0.03934404  0.95752961  0.32173180     0.13100
C1152       C  0.04099645  0.96444545  0.28489939    -0.23000
C1153       C  0.94834026  0.99547232  0.28123506    -0.06100
H1154       H  0.95468288  0.98303154  0.34969025     0.14600
C1155       C  0.07092137  0.93988194  0.33363218    -0.16300
H1156       H  0.06497420  0.95904071  0.26655324     0.08900
H1157       H  0.96397600  0.91424613  0.18232021     0.06800
H1158       H  0.00729020  0.89506937  0.17167981     0.08000
H1159       H  0.99068835  0.92792552  0.13869255     0.07000
H1160       H  0.06137734  0.04387515  0.23869757     0.01900
H1161       H  0.01764253  0.06262922  0.24550093     0.02400
H1162       H  0.04903788  0.07957930  0.20464655     0.05900
H1163       H  0.92569411  0.99877118  0.30323109     0.04900
H1164       H  0.94098928  0.97291991  0.26624501    -0.00900
H1165       H  0.95385099  0.02462837  0.26325406     0.00600
H1166       H  0.07983291  0.91460962  0.31935122     0.04300
H1167       H  0.06553627  0.92724557  0.36232062     0.06200
H1168       H  0.09236737  0.96283126  0.32723713     0.07100
C1169       C  0.71099858  0.95513483  0.51347282    -0.22600
C1170       C  0.72446854  0.98907049  0.52250891     0.09400
C1171       C  0.70243512  0.02063549  0.53071687     0.09800
C1172       C  0.66744000  0.01822145  0.52838578    -0.17500
C1173       C  0.65376624  0.98477620  0.51819597    -0.27900
C1174       C  0.67593071  0.95228515  0.51136429     0.18100
C1175       C  0.76206059  0.99131349  0.52229882     0.12100
C1176       C  0.71595098  0.05687133  0.54188886    -0.12200
H1177       H  0.65091323  0.04311462  0.53386270     0.12400
C1178       C  0.66320384  0.91410455  0.50251815    -0.23100
H1179       H  0.72823638  0.93086664  0.50772880     0.08000
C1180       C  0.77502741  0.97492555  0.55223733     0.04400
C1181       C  0.81100508  0.97780537  0.55056819    -0.20300
C1182       C  0.83427612  0.99604974  0.51934424    -0.12600
C1183       C  0.82094978  0.01322355  0.48957295     0.13100
C1184       C  0.78503449  0.01019222  0.49138276    -0.23000
C1185       C  0.75091000  0.95378574  0.58557024    -0.06100
H1186       H  0.82116377  0.96445410  0.57327594     0.14600
C1187       C  0.84345722  0.03594504  0.45586008    -0.16300
H1188       H  0.77476725  0.02301682  0.46857694     0.08900
H1189       H  0.64039173  0.90131032  0.52357562     0.06800
H1190       H  0.68358410  0.89128425  0.50092490     0.08000
H1191       H  0.65611834  0.91974043  0.47619851     0.07000
H1192       H  0.73712596  0.07211978  0.52015477     0.01900
H1193       H  0.72633333  0.04774852  0.56614059     0.02400
H1194       H  0.69512452  0.07853233  0.54805656     0.05900
H1195       H  0.76520389  0.94287486  0.60664531     0.04900
H1196       H  0.73784397  0.92771933  0.57941490    -0.00900
H1197       H  0.73079042  0.97443535  0.59618864     0.00600
H1198       H  0.84386747  0.01935142  0.43345394     0.04300
H1199       H  0.87060390  0.04138132  0.45797637     0.06200
H1200       H  0.83241410  0.06568285  0.44954220     0.07100
C1201       C  0.28582920  0.04179602  0.47525248    -0.22600
C1202       C  0.26965534  0.00664962  0.47171558     0.09400
C1203       C  0.28944081  0.97231481  0.46750368     0.09800
C1204       C  0.32510426  0.97377622  0.46792973    -0.17500
C1205       C  0.34110371  0.00845413  0.47363034    -0.27900
C1206       C  0.32117814  0.04327462  0.47635445     0.18100
C1207       C  0.23153727  0.00645550  0.47424936     0.12100
C1208       C  0.27263458  0.93397670  0.46368293    -0.12200
H1209       H  0.34017025  0.94725523  0.46519156     0.12400
C1210       C  0.33676644  0.08248517  0.47984962    -0.23100
H1211       H  0.27032287  0.06804200  0.47810606     0.08000
C1212       C  0.20786979  0.99982803  0.50762671     0.04400
C1213       C  0.17194786  0.00092971  0.50907907    -0.20300
C1214       C  0.15891357  0.00804204  0.47789048    -0.12600
C1215       C  0.18294350  0.01549396  0.44431990     0.13100
C1216       C  0.21896996  0.01497096  0.44305952    -0.23000
C1217       C  0.22059030  0.99141496  0.54173123    -0.06100
H1218       H  0.15392190  0.99537025  0.53485233     0.14600
C1219       C  0.17117029  0.02456271  0.40972387    -0.16300
H1220       H  0.23752176  0.02094543  0.41761032     0.08900
H1221       H  0.34355664  0.08042718  0.50618999     0.06800
H1222       H  0.36030408  0.09068789  0.45811210     0.08000
H1223       H  0.31817263  0.10704059  0.47800790     0.07000
H1224       H  0.26105674  0.93882708  0.43988550     0.01900
H1225       H  0.25175141  0.92374354  0.48773296     0.02400
H1226       H  0.29178592  0.90994237  0.46055632     0.05900
H1227       H  0.19861663  0.98609269  0.56552298     0.04900
H1228       H  0.23662798  0.01721854  0.54410867    -0.00900
H1229       H  0.23666407  0.96445996  0.54174887     0.00600
H1230       H  0.19354997  0.03220029  0.38655152     0.04300
H1231       H  0.15370292  0.05034028  0.41026634     0.06200
H1232       H  0.15737880  0.99803398  0.40535931     0.07100
C1233       C  0.88882843  0.76721781  0.54370020    -0.22600
C1234       C  0.88187647  0.75567817  0.51307543     0.09400
C1235       C  0.89407285  0.77993220  0.47964881     0.09800
C1236       C  0.91340984  0.81526734  0.47762632    -0.17500
C1237       C  0.92075416  0.82685709  0.50832727    -0.27900
C1238       C  0.90802042  0.80240570  0.54191970     0.18100
C1239       C  0.86003511  0.71911853  0.51721612     0.12100
C1240       C  0.88661302  0.76850297  0.44622467    -0.12200
H1241       H  0.92292063  0.83384528  0.45196263     0.12400
C1242       C  0.91321391  0.81361964  0.57636605    -0.23100
H1243       H  0.87876727  0.74864542  0.56927024     0.08000
C1244       C  0.87374778  0.68068464  0.52210682     0.04400
C1245       C  0.85181563  0.64710398  0.52545380    -0.20300
C1246       C  0.81625306  0.65112834  0.52515050    -0.12600
C1247       C  0.80211334  0.68968064  0.52330978     0.13100
C1248       C  0.82437845  0.72316056  0.51841817    -0.23000
C1249       C  0.91154591  0.67519768  0.52325703    -0.06100
H1250       H  0.86275832  0.61768911  0.52713109     0.14600
C1251       C  0.76360165  0.69667512  0.52790538    -0.16300
H1252       H  0.81370141  0.75272210  0.51630206     0.08900
H1253       H  0.94123233  0.81237499  0.57712960     0.06800
H1254       H  0.89876465  0.79281657  0.59996018     0.08000
H1255       H  0.90360925  0.84403455  0.57894886     0.07000
H1256       H  0.85800206  0.76664217  0.44848312     0.01900
H1257       H  0.89781087  0.73907614  0.44224710     0.02400
H1258       H  0.89808974  0.79068982  0.42231726     0.05900
H1259       H  0.91793571  0.64315328  0.52750609     0.04900
H1260       H  0.91746243  0.68863707  0.54550660    -0.00900
H1261       H  0.92843977  0.68988310  0.49775041     0.00600
H1262       H  0.75512111  0.71489552  0.54934622     0.04300
H1263       H  0.74747829  0.66873525  0.53600827     0.06200
H1264       H  0.75831019  0.71304406  0.50270985     0.07100
C1265       C  0.11215693  0.21392779  0.46444381    -0.22600
C1266       C  0.10755138  0.23319874  0.49420291     0.09400
C1267       C  0.08558824  0.21555099  0.52672069     0.09800
C1268       C  0.06839890  0.17887528  0.52862202    -0.17500
C1269       C  0.07280176  0.15967994  0.49871467    -0.27900
C1270       C  0.09545762  0.17710115  0.46634105     0.18100
C1271       C  0.12780065  0.27064853  0.49106990     0.12100
C1272       C  0.08062026  0.23526305  0.55935143    -0.12200
H1273       H  0.05111224  0.16536673  0.55337029     0.12400
C1274       C  0.10374303  0.15718487  0.43368130    -0.23100
H1275       H  0.12963846  0.22731228  0.43976009     0.08000
C1276       C  0.16303325  0.26988997  0.49340251     0.04400
C1277       C  0.18153314  0.30593838  0.49007581    -0.20300
C1278       C  0.16551275  0.34290436  0.48504313    -0.12600
C1279       C  0.13012201  0.34349848  0.48227921     0.13100
C1280       C  0.11176194  0.30725162  0.48525259    -0.23000
C1281       C  0.18072949  0.23093168  0.50054738    -0.06100
H1282       H  0.20854842  0.30520321  0.49227754     0.14600
C1283       C  0.11103290  0.38184572  0.47777720    -0.16300
H1284       H  0.08461110  0.30734536  0.48353355     0.08900
H1285       H  0.13242834  0.15432329  0.42535980     0.06800
H1286       H  0.09445535  0.17567655  0.41160541     0.08000
H1287       H  0.09190918  0.12678477  0.43812884     0.07000
H1288       H  0.06932620  0.26502884  0.55403450     0.01900
H1289       H  0.10615700  0.23890568  0.56639780     0.02400
H1290       H  0.06275286  0.21734222  0.58262743     0.05900
H1291       H  0.20813611  0.23562364  0.50246900     0.04900
H1292       H  0.18096839  0.21357792  0.47868795    -0.00900
H1293       H  0.16646195  0.21328927  0.52611935     0.00600
H1294       H  0.08327584  0.37643600  0.47742978     0.04300
H1295       H  0.12338889  0.40077899  0.45215188     0.06200
H1296       H  0.11160843  0.39801829  0.50024226     0.07100
loop_ 
_geom_bond_atom_site_label_1 
_geom_bond_atom_site_label_2 
_geom_bond_distance 
_geom_bond_site_symmetry_2 
_ccdc_geom_bond_type 
Zr1           O2   2.442       .  S
Zr1           O3   2.454       .  S
Zr1           O4   2.460       .  S
Zr1           O7   2.427       .  S
Zr1           O9   2.381   1_655  S
Zr1          O10   2.386       .  S
Zr1          O11   2.409   1_565  S
Zr1          O12   2.410   1_565  S
O2           H58   0.990       .  S
O2           H66   0.990       .  S
O3           C23   1.287       .  A
O4           C25   1.288   1_655  A
O5          Zr15   2.435       .  S
O5           C24   1.284   1_545  A
O6          Zr14   2.430       .  S
O6           C25   1.283       .  A
O7           C24   1.283       .  A
O8          Zr16   2.406   1_655  S
O8           C23   1.277       .  A
O9          Zr14   2.397       .  S
O9          Zr16   2.386       .  S
O10         Zr15   2.396   1_565  S
O10         Zr16   2.380   1_655  S
O10          H45   0.965       .  S
O11         Zr14   2.402   1_645  S
O11         Zr31   2.391       .  S
O11          H48   0.965       .  S
O12         Zr15   2.392       .  S
O12         Zr31   2.393       .  S
Zr13         O38   2.442       .  S
Zr13         O32   2.434       .  S
Zr13         O40   2.439       .  S
Zr13         O28   2.440       .  S
Zr13         O19   2.399   1_445  S
Zr13         O20   2.409   1_545  S
Zr13         O21   2.375       .  S
Zr13         O22   2.389   1_455  S
Zr14         O33   2.436   1_565  S
Zr14         O26   2.435       .  S
Zr14         O27   2.428       .  S
Zr14         O20   2.400       .  S
Zr14         O21   2.391   1_565  S
Zr15         O17   2.438       .  S
Zr15         O39   2.439   1_545  S
Zr15         O41   2.432       .  S
Zr15         O19   2.391   1_545  S
Zr15         O22   2.398       .  S
Zr16         O42   2.438   1_455  S
Zr16         O43   2.436       .  S
Zr16         O18   2.437       .  S
Zr16         O19   2.383   1_455  S
Zr16         O20   2.396       .  S
O17          H54   0.990       .  S
O18          H49   0.991       .  S
O18          H63   0.990       .  S
O20          H46   0.965       .  S
O21         Zr31   2.372   1_455  S
O22         Zr31   2.382       .  S
O22          H47   0.966       .  S
C23        C1237   1.486       .  S
C24        C1182   1.479       .  S
C25        C1150   1.496       .  S
O26          H62   0.990       .  S
O27          C29   1.283   1_565  A
O28          C29   1.285       .  A
C29        C1214   1.489       .  S
O30         Zr31   2.437       .  S
O30          H59   0.991       .  S
Zr31         O34   2.436   1_655  S
Zr31         O35   2.438       .  S
Zr31         O36   2.416   1_655  S
O32          C37   1.283       .  A
O33          H50   0.990       .  S
O33          H65   0.990       .  S
O34          H51   0.989       .  S
O35          H55   0.990       .  S
O35          H64   0.989       .  S
O36          C37   1.280       .  A
C37        C1269   1.472       .  S
O38          H57   0.990   1_545  S
O38          H61   0.991       .  S
O39          H53   0.991       .  S
O39          H60   0.990       .  S
O40          C44   1.286   1_455  A
O41          C44   1.285       .  A
O42          H52   0.990       .  S
O43          H56   0.990       .  S
C44        C1109   1.488       .  S
Zr67         O68   2.444       .  S
Zr67         O69   2.444       .  S
Zr67         O70   2.431       .  S
Zr67         O73   2.427       .  S
Zr67         O75   2.381   1_545  S
Zr67         O76   2.376       .  S
Zr67         O77   2.408       .  S
Zr67         O78   2.403       .  S
O68         H124   0.991       .  S
O68         H132   0.990       .  S
O69          C89   1.286   1_545  A
O70          C91   1.282   1_545  A
O71         Zr81   2.428       .  S
O71          C90   1.283       .  A
O72         Zr80   2.436       .  S
O72          C91   1.285       .  A
O73          C90   1.284       .  A
O74         Zr82   2.408       .  S
O74          C89   1.277       .  A
O75         Zr80   2.398       .  S
O75         Zr82   2.382       .  S
O76         Zr81   2.388       .  S
O76         Zr82   2.379   1_545  S
O76         H111   0.965       .  S
O77         Zr80   2.399   1_545  S
O77         Zr97   2.393       .  S
O77         H114   0.965       .  S
O78         Zr81   2.389       .  S
O78         Zr97   2.396       .  S
Zr79        O104   2.438       .  S
Zr79         O98   2.436       .  S
Zr79        O106   2.431       .  S
Zr79         O94   2.440       .  S
Zr79         O85   2.397       .  S
Zr79         O86   2.405       .  S
Zr79         O87   2.377       .  S
Zr79         O88   2.384   1_565  S
Zr80         O99   2.437       .  S
Zr80         O92   2.435       .  S
Zr80         O93   2.427       .  S
Zr80         O86   2.401       .  S
Zr80         O87   2.395       .  S
Zr81         O83   2.435       .  S
Zr81        O105   2.439       .  S
Zr81        O107   2.416       .  S
Zr81         O85   2.387   1_545  S
Zr81         O88   2.395       .  S
Zr82        O108   2.440       .  S
Zr82        O109   2.435       .  S
Zr82         O84   2.435       .  S
Zr82         O85   2.385       .  S
Zr82         O86   2.395       .  S
O83         H120   0.990       .  S
O84         H115   0.990       .  S
O84         H129   0.990       .  S
O86         H112   0.966       .  S
O87         Zr97   2.378   1_565  S
O88         Zr97   2.377       .  S
O88         H113   0.967       .  S
C89        C1173   1.491       .  S
C90        C1077   1.488       .  S
C91         C990   1.482       .  S
O92         H128   0.990       .  S
O93          C95   1.283       .  A
O94          C95   1.285       .  A
C95        C1045   1.477       .  S
O96         Zr97   2.440       .  S
O96         H125   0.990       .  S
Zr97        O100   2.437       .  S
Zr97        O101   2.442       .  S
Zr97        O102   2.426       .  S
O98         C103   1.284   1_565  A
O99         H116   0.990       .  S
O99         H131   0.990       .  S
O100        H117   0.990       .  S
O101        H121   0.990       .  S
O101        H130   0.989       .  S
O102        C103   1.282       .  A
C103       C1205   1.491       .  S
O104        H123   0.990       .  S
O104        H127   0.990       .  S
O105        H119   0.990       .  S
O105        H126   0.989       .  S
O106        C110   1.284   1_565  A
O107        C110   1.283       .  A
O108        H118   0.990       .  S
O109        H122   0.990       .  S
C110       C1013   1.475       .  S
Zr133       O134   2.440       .  S
Zr133       O135   2.448       .  S
Zr133       O136   2.433       .  S
Zr133       O139   2.421       .  S
Zr133       O141   2.378       .  S
Zr133       O142   2.377       .  S
Zr133       O143   2.405       .  S
Zr133       O144   2.405       .  S
O134        H190   0.990       .  S
O134        H198   0.990       .  S
O135        C155   1.286       .  A
O136        C157   1.284       .  A
O137       Zr147   2.442       .  S
O137        C156   1.286       .  A
O138       Zr146   2.443       .  S
O138        C157   1.285       .  A
O139        C156   1.283       .  A
O140       Zr148   2.410       .  S
O140        C155   1.280       .  A
O141       Zr146   2.399       .  S
O141       Zr148   2.380       .  S
O142       Zr147   2.392       .  S
O142       Zr148   2.376       .  S
O142        H177   0.965       .  S
O143       Zr146   2.398       .  S
O143       Zr163   2.398       .  S
O143        H180   0.965       .  S
O144       Zr147   2.391       .  S
O144       Zr163   2.400       .  S
Zr145       O170   2.446       .  S
Zr145       O164   2.434       .  S
Zr145       O172   2.443       .  S
Zr145       O160   2.437       .  S
Zr145       O151   2.398       .  S
Zr145       O152   2.404       .  S
Zr145       O153   2.380       .  S
Zr145       O154   2.386       .  S
Zr146       O165   2.437       .  S
Zr146       O158   2.433       .  S
Zr146       O159   2.437       .  S
Zr146       O152   2.401       .  S
Zr146       O153   2.388       .  S
Zr147       O149   2.433       .  S
Zr147       O171   2.440       .  S
Zr147       O173   2.435       .  S
Zr147       O151   2.395       .  S
Zr147       O154   2.393       .  S
Zr148       O174   2.438       .  S
Zr148       O175   2.437       .  S
Zr148       O150   2.437       .  S
Zr148       O151   2.391       .  S
Zr148       O152   2.393       .  S
O149        H186   0.990       .  S
O150        H181   0.990       .  S
O150        H195   0.990       .  S
O152        H178   0.965       .  S
O153       Zr163   2.371       .  S
O154       Zr163   2.382       .  S
O154        H179   0.966       .  S
C155       C1278   1.486       .  S
C156        C949   1.488       .  S
C157        C885   1.505       .  S
O158        H194   0.990       .  S
O159        C161   1.286       .  A
O160        C161   1.286       .  A
C161        C917   1.486       .  S
O162       Zr163   2.441       .  S
O162        H191   0.991       .  S
Zr163       O166   2.440       .  S
Zr163       O167   2.440       .  S
Zr163       O168   2.431       .  S
O164        C169   1.284       .  A
O165        H182   0.990       .  S
O165        H197   0.990       .  S
O166        H183   0.990       .  S
O167        H187   0.990       .  S
O167        H196   0.989       .  S
O168        C169   1.284       .  A
C169       C1054   1.477       .  S
O170        H189   0.990       .  S
O170        H193   0.990       .  S
O171        H185   0.990       .  S
O171        H192   0.990       .  S
O172        C176   1.287       .  A
O173        C176   1.285       .  A
O174        H184   0.990       .  S
O175        H188   0.990       .  S
C176        C853   1.487       .  S
Zr199       O200   2.441       .  S
Zr199       O201   2.435       .  S
Zr199       O202   2.433       .  S
Zr199       O205   2.420       .  S
Zr199       O207   2.381       .  S
Zr199       O208   2.383       .  S
Zr199       O209   2.403       .  S
Zr199       O210   2.401       .  S
O200        H256   0.990       .  S
O200        H264   0.991       .  S
O201        C221   1.284       .  A
O202        C223   1.285       .  A
O203       Zr213   2.445       .  S
O203        C222   1.287       .  A
O204       Zr212   2.434       .  S
O204        C223   1.285       .  A
O205        C222   1.284       .  A
O206       Zr214   2.424       .  S
O206        C221   1.282       .  A
O207       Zr212   2.397       .  S
O207       Zr214   2.376       .  S
O208       Zr213   2.391       .  S
O208       Zr214   2.374       .  S
O208        H243   0.965       .  S
O209       Zr212   2.400       .  S
O209       Zr229   2.387       .  S
O209        H246   0.967       .  S
O210       Zr213   2.388       .  S
O210       Zr229   2.387       .  S
Zr211       O236   2.443       .  S
Zr211       O230   2.440       .  S
Zr211       O238   2.421       .  S
Zr211       O226   2.425       .  S
Zr211       O217   2.401       .  S
Zr211       O218   2.405       .  S
Zr211       O219   2.371       .  S
Zr211       O220   2.384       .  S
Zr212       O231   2.435       .  S
Zr212       O224   2.432       .  S
Zr212       O225   2.447       .  S
Zr212       O218   2.392       .  S
Zr212       O219   2.380       .  S
Zr213       O215   2.435       .  S
Zr213       O237   2.437       .  S
Zr213       O239   2.446       .  S
Zr213       O217   2.386       .  S
Zr213       O220   2.392       .  S
Zr214       O240   2.435       .  S
Zr214       O241   2.434       .  S
Zr214       O216   2.436       .  S
Zr214       O217   2.398       .  S
Zr214       O218   2.398       .  S
O215        H252   0.990       .  S
O216        H247   0.991       .  S
O216        H261   0.990       .  S
O218        H244   0.966       .  S
O219       Zr229   2.371       .  S
O220       Zr229   2.380       .  S
O220        H245   0.966       .  S
C221       C1086   1.487       .  S
C222        C926   1.486       .  S
C223        C821   1.478       .  S
O224        H260   0.990       .  S
O225        C227   1.287       .  A
O226        C227   1.284       .  A
C227        C958   1.486       .  S
O228       Zr229   2.439       .  S
O228        H257   0.990       .  S
Zr229       O232   2.436       .  S
Zr229       O233   2.437       .  S
Zr229       O234   2.421       .  S
O230        C235   1.286       .  A
O231        H248   0.990       .  S
O231        H263   0.989       .  S
O232        H249   0.990       .  S
O233        H253   0.990       .  S
O233        H262   0.989       .  S
O234        C235   1.283       .  A
C235       C1246   1.482       .  S
O236        H255   0.991       .  S
O236        H259   0.990       .  S
O237        H251   0.990       .  S
O237        H258   0.989       .  S
O238        C242   1.284       .  A
O239        C242   1.287       .  A
O240        H250   0.990       .  S
O241        H254   0.990       .  S
C242        C789   1.489       .  S
Zr265       O266   2.440       .  S
Zr265       O267   2.427       .  S
Zr265       O268   2.442       .  S
Zr265       O271   2.421       .  S
Zr265       O273   2.385   1_545  S
Zr265       O274   2.379   1_556  S
Zr265       O275   2.395   1_655  S
Zr265       O276   2.400   1_655  S
O266        H322   0.989       .  S
O266        H330   0.990       .  S
O267        C287   1.283   1_545  A
O268        C289   1.285   1_545  A
O269       Zr279   2.439       .  S
O269        C288   1.285       .  A
O270       Zr278   2.438       .  S
O270        C289   1.286   1_455  A
O271        C288   1.284   1_556  A
O272       Zr280   2.414       .  S
O272        C287   1.280   1_554  A
O273       Zr278   2.397   1_655  S
O273       Zr280   2.383   1_556  S
O274       Zr279   2.381       .  S
O274       Zr280   2.374   1_545  S
O274        H309   0.963       .  S
O275       Zr278   2.394   1_545  S
O275       Zr295   2.394       .  S
O275        H312   0.965       .  S
O276       Zr279   2.388   1_456  S
O276       Zr295   2.384       .  S
Zr277       O302   2.441       .  S
Zr277       O296   2.431       .  S
Zr277       O304   2.440       .  S
Zr277       O292   2.438       .  S
Zr277       O283   2.395   1_455  S
Zr277       O284   2.410       .  S
Zr277       O285   2.379   1_554  S
Zr277       O286   2.385   1_565  S
Zr278       O297   2.435       .  S
Zr278       O290   2.435       .  S
Zr278       O291   2.437       .  S
Zr278       O284   2.403   1_556  S
Zr278       O285   2.391       .  S
Zr279       O281   2.434   1_655  S
Zr279       O303   2.439       .  S
Zr279       O305   2.421   1_655  S
Zr279       O283   2.395   1_545  S
Zr279       O286   2.394   1_655  S
Zr280       O306   2.435       .  S
Zr280       O307   2.435       .  S
Zr280       O282   2.439       .  S
Zr280       O283   2.387       .  S
Zr280       O284   2.393   1_655  S
O281        H318   0.990   1_455  S
O282        H313   0.990       .  S
O282        H327   0.990   1_554  S
O284        H310   0.965       .  S
O285       Zr295   2.382   1_565  S
O286       Zr295   2.383   1_554  S
O286        H311   0.966       .  S
C287        C661   1.463   1_556  S
C288        C725   1.483       .  S
C289       C1118   1.499       .  S
O290        H326   0.990   1_455  S
O291        C293   1.286       .  A
O292        C293   1.284   1_554  A
C293        C757   1.485       .  S
O294       Zr295   2.439       .  S
O294        H323   0.990       .  S
Zr295       O298   2.437       .  S
Zr295       O299   2.440       .  S
Zr295       O300   2.405       .  S
O296        C301   1.282   1_565  A
O297        H314   0.990       .  S
O297        H329   0.990       .  S
O298        H315   0.990       .  S
O299        H319   0.990   1_556  S
O299        H328   0.990       .  S
O300        C301   1.279   1_556  A
C301        C693   1.476       .  S
O302        H321   0.991       .  S
O302        H325   0.990       .  S
O303        H317   0.990       .  S
O303        H324   0.989       .  S
O304        C308   1.286       .  A
O305        C308   1.282   1_545  A
O306        H316   0.990       .  S
O307        H320   0.990       .  S
C308       C1141   1.476       .  S
Zr331       O332   2.434       .  S
Zr331       O333   2.431       .  S
Zr331       O334   2.467       .  S
Zr331       O337   2.430       .  S
Zr331       O339   2.378   1_545  S
Zr331       O340   2.388   1_556  S
Zr331       O341   2.403       .  S
Zr331       O342   2.402       .  S
O332        H388   0.989       .  S
O332        H396   0.989       .  S
O333        C353   1.284   1_545  A
O334        C355   1.291   1_545  A
O335       Zr345   2.415       .  S
O335        C354   1.282   1_554  A
O336       Zr344   2.414       .  S
O336        C355   1.282       .  A
O337        C354   1.284       .  A
O338       Zr346   2.412       .  S
O338        C353   1.280   1_554  A
O339       Zr344   2.387       .  S
O339       Zr346   2.376   1_556  S
O340       Zr345   2.384       .  S
O340       Zr346   2.376   1_545  S
O340        H375   0.966       .  S
O341       Zr344   2.396   1_545  S
O341       Zr361   2.392       .  S
O341        H378   0.964       .  S
O342       Zr345   2.387   1_556  S
O342       Zr361   2.387       .  S
Zr343       O368   2.438       .  S
Zr343       O362   2.426       .  S
Zr343       O370   2.430       .  S
Zr343       O358   2.434       .  S
Zr343       O349   2.397       .  S
Zr343       O350   2.403       .  S
Zr343       O351   2.377   1_554  S
Zr343       O352   2.378   1_565  S
Zr344       O363   2.436       .  S
Zr344       O356   2.435       .  S
Zr344       O357   2.417       .  S
Zr344       O350   2.392   1_556  S
Zr344       O351   2.384       .  S
Zr345       O347   2.434       .  S
Zr345       O369   2.436       .  S
Zr345       O371   2.417       .  S
Zr345       O349   2.387   1_545  S
Zr345       O352   2.380       .  S
Zr346       O372   2.435       .  S
Zr346       O373   2.435       .  S
Zr346       O348   2.436       .  S
Zr346       O349   2.394       .  S
Zr346       O350   2.390       .  S
O347        H384   0.990       .  S
O348        H379   0.990       .  S
O348        H393   0.990   1_554  S
O350        H376   0.965       .  S
O351       Zr361   2.373   1_565  S
O352       Zr361   2.378   1_554  S
O352        H377   0.966       .  S
C353        C702   1.467   1_565  S
C354        C606   1.468       .  S
C355        C981   1.496       .  S
O356        H392   0.990       .  S
O357        C359   1.282       .  A
O358        C359   1.284   1_554  A
C359        C629   1.475       .  S
O360       Zr361   2.439       .  S
O360        H389   0.990       .  S
Zr361       O364   2.439       .  S
Zr361       O365   2.441       .  S
Zr361       O366   2.411       .  S
O362        C367   1.284   1_565  A
O363        H380   0.990       .  S
O363        H395   0.990       .  S
O364        H381   0.990       .  S
O365        H385   0.989       .  S
O365        H394   0.990   1_556  S
O366        C367   1.279   1_556  A
C367        C670   1.483       .  S
O368        H387   0.990       .  S
O368        H391   0.990       .  S
O369        H383   0.990       .  S
O369        H390   0.989       .  S
O370        C374   1.285   1_565  A
O371        C374   1.282       .  A
O372        H382   0.990       .  S
O373        H386   0.990       .  S
C374       C1022   1.479       .  S
Zr397       O398   2.443       .  S
Zr397       O399   2.432       .  S
Zr397       O400   2.469       .  S
Zr397       O403   2.442       .  S
Zr397       O405   2.384       .  S
Zr397       O406   2.391   1_556  S
Zr397       O407   2.405       .  S
Zr397       O408   2.404       .  S
O398        H454   0.990       .  S
O398        H462   0.990       .  S
O399        C419   1.284   1_556  A
O400        C421   1.290       .  A
O401       Zr411   2.439       .  S
O401        C420   1.285       .  A
O402       Zr410   2.429       .  S
O402        C421   1.283       .  A
O403        C420   1.286   1_556  A
O404       Zr412   2.403       .  S
O404        C419   1.278       .  A
O405       Zr410   2.396       .  S
O405       Zr412   2.387   1_556  S
O406       Zr411   2.389       .  S
O406       Zr412   2.383       .  S
O406        H441   0.965       .  S
O407       Zr410   2.399       .  S
O407       Zr427   2.395       .  S
O407        H444   0.964       .  S
O408       Zr411   2.392   1_556  S
O408       Zr427   2.388       .  S
Zr409       O434   2.444       .  S
Zr409       O428   2.430       .  S
Zr409       O436   2.440       .  S
Zr409       O424   2.432       .  S
Zr409       O415   2.400       .  S
Zr409       O416   2.405       .  S
Zr409       O417   2.376   1_554  S
Zr409       O418   2.382       .  S
Zr410       O429   2.432       .  S
Zr410       O422   2.437       .  S
Zr410       O423   2.419       .  S
Zr410       O416   2.395   1_556  S
Zr410       O417   2.387       .  S
Zr411       O413   2.434       .  S
Zr411       O435   2.436       .  S
Zr411       O437   2.433       .  S
Zr411       O415   2.396       .  S
Zr411       O418   2.392       .  S
Zr412       O438   2.437       .  S
Zr412       O439   2.437       .  S
Zr412       O414   2.437       .  S
Zr412       O415   2.389       .  S
Zr412       O416   2.383       .  S
O413        H450   0.990       .  S
O414        H445   0.990       .  S
O414        H459   0.990   1_554  S
O416        H442   0.966       .  S
O417       Zr427   2.377       .  S
O418       Zr427   2.383   1_554  S
O418        H443   0.965       .  S
C419        C565   1.467       .  S
C420        C766   1.485       .  S
C421        C862   1.505       .  S
O422        H458   0.990       .  S
O423        C425   1.282       .  A
O424        C425   1.284   1_554  A
C425        C597   1.474       .  S
O426       Zr427   2.441       .  S
O426        H455   0.990       .  S
Zr427       O430   2.438       .  S
Zr427       O431   2.440       .  S
Zr427       O432   2.414       .  S
O428        C433   1.284       .  A
O429        H446   0.990       .  S
O429        H461   0.988       .  S
O430        H447   0.990       .  S
O431        H451   0.990       .  S
O431        H460   0.989   1_556  S
O432        C433   1.279   1_556  A
C433        C533   1.486       .  S
O434        H453   0.990       .  S
O434        H457   0.990       .  S
O435        H449   0.990       .  S
O435        H456   0.990       .  S
O436        C440   1.284       .  A
O437        C440   1.284       .  A
O438        H448   0.990       .  S
O439        H452   0.990       .  S
C440        C894   1.480       .  S
Zr463       O464   2.441       .  S
Zr463       O465   2.446       .  S
Zr463       O466   2.449       .  S
Zr463       O469   2.432       .  S
Zr463       O471   2.385       .  S
Zr463       O472   2.384   1_556  S
Zr463       O473   2.409       .  S
Zr463       O474   2.407       .  S
O464        H520   0.990       .  S
O464        H528   0.990       .  S
O465        C485   1.286       .  A
O466        C487   1.288       .  A
O467       Zr477   2.430       .  S
O467        C486   1.284       .  A
O468       Zr476   2.438       .  S
O468        C487   1.285       .  A
O469        C486   1.286   1_556  A
O470       Zr478   2.419       .  S
O470        C485   1.281   1_554  A
O471       Zr476   2.395       .  S
O471       Zr478   2.378   1_556  S
O472       Zr477   2.386       .  S
O472       Zr478   2.373       .  S
O472        H507   0.966       .  S
O473       Zr476   2.404       .  S
O473       Zr493   2.394       .  S
O473        H510   0.966       .  S
O474       Zr477   2.392   1_556  S
O474       Zr493   2.395       .  S
Zr475       O500   2.442       .  S
Zr475       O494   2.419       .  S
Zr475       O502   2.426       .  S
Zr475       O490   2.414       .  S
Zr475       O481   2.391       .  S
Zr475       O482   2.403       .  S
Zr475       O483   2.377   1_554  S
Zr475       O484   2.380       .  S
Zr476       O495   2.435       .  S
Zr476       O488   2.434       .  S
Zr476       O489   2.456       .  S
Zr476       O482   2.393   1_556  S
Zr476       O483   2.384       .  S
Zr477       O479   2.434       .  S
Zr477       O501   2.435       .  S
Zr477       O503   2.439       .  S
Zr477       O481   2.388       .  S
Zr477       O484   2.384       .  S
Zr478       O504   2.436       .  S
Zr478       O505   2.436       .  S
Zr478       O480   2.438       .  S
Zr478       O481   2.395       .  S
Zr478       O482   2.395       .  S
O479        H516   0.990       .  S
O480        H511   0.990       .  S
O480        H525   0.990   1_554  S
O482        H508   0.965       .  S
O483       Zr493   2.371       .  S
O484       Zr493   2.378   1_554  S
O484        H509   0.966       .  S
C485        C542   1.475       .  S
C486        C638   1.481       .  S
C487        C798   1.500       .  S
O488        H524   0.990       .  S
O489        C491   1.288       .  A
O490        C491   1.281   1_554  A
C491        C734   1.482       .  S
O492       Zr493   2.440       .  S
O492        H521   0.990       .  S
Zr493       O496   2.437       .  S
Zr493       O497   2.442       .  S
Zr493       O498   2.421       .  S
O494        C499   1.282       .  A
O495        H512   0.990       .  S
O495        H527   0.990       .  S
O496        H513   0.990       .  S
O497        H517   0.990       .  S
O497        H526   0.990       .  S
O498        C499   1.281   1_556  A
C499        C574   1.477       .  S
O500        H519   0.990       .  S
O500        H523   0.990       .  S
O501        H515   0.990       .  S
O501        H522   0.990       .  S
O502        C506   1.282       .  A
O503        C506   1.287       .  A
O504        H514   0.990       .  S
O505        H518   0.990       .  S
C506        C830   1.491       .  S
C529        C530   1.399       .  A
C529        C534   1.405       .  A
C529        H539   1.084       .  S
C530        C535   1.478       .  S
C530        C531   1.408   1_556  A
C531        C532   1.399       .  A
C531        C536   1.507       .  S
C532        C533   1.407       .  A
C532        H537   1.083       .  S
C533        C534   1.422   1_554  A
C534        C538   1.508       .  S
C535        C540   1.411       .  A
C535        C544   1.398   1_556  A
C536        H552   1.110       .  S
C536        H553   1.110   1_554  S
C536        H554   1.111       .  S
C538        H549   1.109       .  S
C538        H550   1.111       .  S
C538        H551   1.110   1_556  S
C540        C541   1.406       .  A
C540        C545   1.506       .  S
C541        C542   1.403       .  A
C541        H546   1.084       .  S
C542        C543   1.418   1_556  A
C543        C544   1.400       .  A
C543        C547   1.509       .  S
C544        H548   1.085       .  S
C545        H555   1.111       .  S
C545        H556   1.110       .  S
C545        H557   1.110       .  S
C547        H558   1.111       .  S
C547        H559   1.107       .  S
C547        H560   1.110       .  S
C561        C562   1.398       .  A
C561        C566   1.396       .  A
C561        H571   1.085       .  S
C562        C567   1.469   1_455  S
C562        C563   1.408       .  A
C563        C564   1.402       .  A
C563        C568   1.506       .  S
C564        C565   1.405       .  A
C564        H569   1.084       .  S
C565        C566   1.416       .  A
C566        C570   1.510       .  S
C567        C572   1.408       .  A
C567        C576   1.397   1_554  A
C568        H584   1.110   1_554  S
C568        H585   1.110   1_455  S
C568        H586   1.111       .  S
C570        H581   1.111       .  S
C570        H582   1.110   1_554  S
C570        H583   1.106       .  S
C572        C573   1.401       .  A
C572        C577   1.506       .  S
C573        C574   1.406       .  A
C573        H578   1.084       .  S
C574        C575   1.419   1_554  A
C575        C576   1.399       .  A
C575        C579   1.508       .  S
C576        H580   1.085       .  S
C577        H587   1.111       .  S
C577        H588   1.110       .  S
C577        H589   1.110       .  S
C579        H590   1.111       .  S
C579        H591   1.108       .  S
C579        H592   1.110       .  S
C593        C594   1.400       .  A
C593        C598   1.401       .  A
C593        H603   1.085   1_556  S
C594        C599   1.473       .  S
C594        C595   1.409       .  A
C595        C596   1.399       .  A
C595        C600   1.508       .  S
C596        C597   1.405       .  A
C596        H601   1.084       .  S
C597        C598   1.417       .  A
C598        C602   1.508   1_556  S
C599        C604   1.410       .  A
C599        C608   1.399   1_556  A
C600        H616   1.110       .  S
C600        H617   1.110       .  S
C600        H618   1.111       .  S
C602        H613   1.111   1_554  S
C602        H614   1.110       .  S
C602        H615   1.106   1_554  S
C604        C605   1.401       .  A
C604        C609   1.506       .  S
C605        C606   1.402       .  A
C605        H610   1.084       .  S
C606        C607   1.415   1_556  A
C607        C608   1.399       .  A
C607        C611   1.507       .  S
C608        H612   1.085       .  S
C609        H619   1.111       .  S
C609        H620   1.110       .  S
C609        H621   1.110       .  S
C611        H622   1.110       .  S
C611        H623   1.107       .  S
C611        H624   1.111       .  S
C625        C626   1.400   1_554  A
C625        C630   1.403       .  A
C625        H635   1.085       .  S
C626        C631   1.476       .  S
C626        C627   1.408       .  A
C627        C628   1.399       .  A
C627        C632   1.506       .  S
C628        C629   1.404       .  A
C628        H633   1.084       .  S
C629        C630   1.417   1_556  A
C630        C634   1.505       .  S
C631        C636   1.410       .  A
C631        C640   1.398   1_556  A
C632        H648   1.110   1_556  S
C632        H649   1.110       .  S
C632        H650   1.111       .  S
C634        H645   1.111   1_554  S
C634        H646   1.110       .  S
C634        H647   1.105       .  S
C636        C637   1.403       .  A
C636        C641   1.506       .  S
C637        C638   1.405   1_556  A
C637        H642   1.084       .  S
C638        C639   1.418       .  A
C639        C640   1.402       .  A
C639        C643   1.506       .  S
C640        H644   1.084       .  S
C641        H651   1.111       .  S
C641        H652   1.110       .  S
C641        H653   1.110       .  S
C643        H654   1.108       .  S
C643        H655   1.110       .  S
C643        H656   1.111       .  S
C657        C658   1.395       .  A
C657        C662   1.395       .  A
C657        H667   1.085       .  S
C658        C663   1.466       .  S
C658        C659   1.410   1_544  A
C659        C660   1.401       .  A
C659        C664   1.506       .  S
C660        C661   1.401   1_556  A
C660        H665   1.084       .  S
C661        C662   1.418   1_565  A
C662        C666   1.509       .  S
C663        C668   1.406   1_545  A
C663        C672   1.395   1_554  A
C664        H680   1.110   1_565  S
C664        H681   1.110       .  S
C664        H682   1.111       .  S
C666        H677   1.110   1_545  S
C666        H678   1.111       .  S
C666        H679   1.103       .  S
C668        C669   1.399       .  A
C668        C673   1.507       .  S
C669        C670   1.408   1_565  A
C669        H674   1.081       .  S
C670        C671   1.421   1_554  A
C671        C672   1.398       .  A
C671        C675   1.508       .  S
C672        H676   1.085       .  S
C673        H683   1.110       .  S
C673        H684   1.110       .  S
C673        H685   1.110       .  S
C675        H686   1.111       .  S
C675        H687   1.110   1_556  S
C675        H688   1.108       .  S
C689        C690   1.401   1_554  A
C689        C694   1.404       .  A
C689        H699   1.084   1_545  S
C690        C695   1.474       .  S
C690        C691   1.406       .  A
C691        C692   1.398       .  A
C691        C696   1.508       .  S
C692        C693   1.406   1_556  A
C692        H697   1.084       .  S
C693        C694   1.418       .  A
C694        C698   1.509   1_545  S
C695        C700   1.409       .  A
C695        C704   1.401   1_545  A
C696        H712   1.110       .  S
C696        H713   1.110       .  S
C696        H714   1.111       .  S
C698        H709   1.111   1_565  S
C698        H710   1.110       .  S
C698        H711   1.106   1_565  S
C700        C701   1.400       .  A
C700        C705   1.507   1_556  S
C701        C702   1.403       .  A
C701        H706   1.085       .  S
C702        C703   1.415   1_545  A
C703        C704   1.401       .  A
C703        C707   1.507       .  S
C704        H708   1.085       .  S
C705        H715   1.111       .  S
C705        H716   1.110       .  S
C705        H717   1.110   1_554  S
C707        H718   1.110       .  S
C707        H719   1.108       .  S
C707        H720   1.111       .  S
C721        C722   1.401   1_554  A
C721        C726   1.406       .  A
C721        H731   1.084       .  S
C722        C727   1.479       .  S
C722        C723   1.408       .  A
C723        C724   1.401       .  A
C723        C728   1.507       .  S
C724        C725   1.406   1_556  A
C724        H729   1.084       .  S
C725        C726   1.417       .  A
C726        C730   1.506       .  S
C727        C732   1.411       .  A
C727        C736   1.399   1_556  A
C728        H744   1.110       .  S
C728        H745   1.109       .  S
C728        H746   1.111       .  S
C730        H741   1.111       .  S
C730        H742   1.109       .  S
C730        H743   1.110       .  S
C732        C733   1.406       .  A
C732        C737   1.507       .  S
C733        C734   1.405       .  A
C733        H738   1.084       .  S
C734        C735   1.419   1_556  A
C735        C736   1.402       .  A
C735        C739   1.509       .  S
C736        H740   1.084       .  S
C737        H747   1.111       .  S
C737        H748   1.110   1_556  S
C737        H749   1.110       .  S
C739        H750   1.109       .  S
C739        H751   1.110   1_554  S
C739        H752   1.111       .  S
C753        C754   1.402   1_554  A
C753        C758   1.407       .  A
C753        H763   1.084       .  S
C754        C759   1.487   1_556  S
C754        C755   1.410       .  A
C755        C756   1.404       .  A
C755        C760   1.506       .  S
C756        C757   1.406       .  A
C756        H761   1.084       .  S
C757        C758   1.421   1_556  A
C758        C762   1.509       .  S
C759        C764   1.411   1_554  A
C759        C768   1.403       .  A
C760        H776   1.110       .  S
C760        H777   1.110       .  S
C760        H778   1.111       .  S
C762        H773   1.111       .  S
C762        H774   1.110       .  S
C762        H775   1.106       .  S
C764        C765   1.404       .  A
C764        C769   1.506       .  S
C765        C766   1.405   1_556  A
C765        H770   1.084       .  S
C766        C767   1.417       .  A
C767        C768   1.409       .  A
C767        C771   1.506       .  S
C768        H772   1.084       .  S
C769        H779   1.111       .  S
C769        H780   1.110       .  S
C769        H781   1.110       .  S
C771        H782   1.109       .  S
C771        H783   1.111       .  S
C771        H784   1.111       .  S
C785        C786   1.401       .  A
C785        C790   1.407       .  A
C785        H795   1.084       .  S
C786        C791   1.484       .  S
C786        C787   1.409       .  A
C787        C788   1.403       .  A
C787        C792   1.507       .  S
C788        C789   1.408       .  A
C788        H793   1.084       .  S
C789        C790   1.420       .  A
C790        C794   1.507       .  S
C791        C796   1.408       .  A
C791        C800   1.397       .  A
C792        H808   1.110       .  S
C792        H809   1.110       .  S
C792        H810   1.111       .  S
C794        H805   1.110       .  S
C794        H806   1.111       .  S
C794        H807   1.111       .  S
C796        C797   1.408       .  A
C796        C801   1.506       .  S
C797        C798   1.411       .  A
C797        H802   1.084       .  S
C798        C799   1.426       .  A
C799        C800   1.405       .  A
C799        C803   1.508       .  S
C800        H804   1.085       .  S
C801        H811   1.110       .  S
C801        H812   1.110       .  S
C801        H813   1.110       .  S
C803        H814   1.109       .  S
C803        H815   1.111       .  S
C803        H816   1.110       .  S
C817        C818   1.400       .  A
C817        C822   1.404       .  A
C817        H827   1.085       .  S
C818        C823   1.484       .  S
C818        C819   1.411       .  A
C819        C820   1.405       .  A
C819        C824   1.506       .  S
C820        C821   1.404       .  A
C820        H825   1.084       .  S
C821        C822   1.420       .  A
C822        C826   1.509       .  S
C823        C828   1.410       .  A
C823        C832   1.401       .  A
C824        H840   1.110       .  S
C824        H841   1.110       .  S
C824        H842   1.111       .  S
C826        H837   1.111       .  S
C826        H838   1.110       .  S
C826        H839   1.104       .  S
C828        C829   1.403       .  A
C828        C833   1.507       .  S
C829        C830   1.407       .  A
C829        H834   1.084       .  S
C830        C831   1.422       .  A
C831        C832   1.409       .  A
C831        C835   1.509       .  S
C832        H836   1.084       .  S
C833        H843   1.111       .  S
C833        H844   1.110       .  S
C833        H845   1.110       .  S
C835        H846   1.111       .  S
C835        H847   1.110       .  S
C835        H848   1.110       .  S
C849        C850   1.399       .  A
C849        C854   1.405       .  A
C849        H859   1.085       .  S
C850        C855   1.488       .  S
C850        C851   1.412       .  A
C851        C852   1.407       .  A
C851        C856   1.506       .  S
C852        C853   1.406       .  A
C852        H857   1.084       .  S
C853        C854   1.422       .  A
C854        C858   1.510       .  S
C855        C860   1.409       .  A
C855        C864   1.396       .  A
C856        H872   1.110       .  S
C856        H873   1.110       .  S
C856        H874   1.111       .  S
C858        H869   1.110       .  S
C858        H870   1.111       .  S
C858        H871   1.104       .  S
C860        C861   1.411       .  A
C860        C865   1.505       .  S
C861        C862   1.412       .  A
C861        H866   1.083       .  S
C862        C863   1.427       .  A
C863        C864   1.404       .  A
C863        C867   1.506       .  S
C864        H868   1.085       .  S
C865        H875   1.110       .  S
C865        H876   1.110       .  S
C865        H877   1.110       .  S
C867        H878   1.110       .  S
C867        H879   1.107       .  S
C867        H880   1.111       .  S
C881        C882   1.400       .  A
C881        C886   1.410       .  A
C881        H891   1.084       .  S
C882        C887   1.486       .  S
C882        C883   1.407       .  A
C883        C884   1.402       .  A
C883        C888   1.508       .  S
C884        C885   1.414       .  A
C884        H889   1.082       .  S
C885        C886   1.426       .  A
C886        C890   1.507       .  S
C887        C892   1.412       .  A
C887        C896   1.400       .  A
C888        H904   1.110       .  S
C888        H905   1.111       .  S
C888        H906   1.111       .  S
C890        H901   1.109       .  S
C890        H902   1.111       .  S
C890        H903   1.110       .  S
C892        C893   1.406       .  A
C892        C897   1.506       .  S
C893        C894   1.404       .  A
C893        H898   1.084       .  S
C894        C895   1.419       .  A
C895        C896   1.403       .  A
C895        C899   1.508       .  S
C896        H900   1.085       .  S
C897        H907   1.111       .  S
C897        H908   1.110       .  S
C897        H909   1.110       .  S
C899        H910   1.111       .  S
C899        H911   1.105       .  S
C899        H912   1.110       .  S
C913        C914   1.400       .  A
C913        C918   1.404       .  A
C913        H923   1.085       .  S
C914        C919   1.481       .  S
C914        C915   1.409       .  A
C915        C916   1.405       .  A
C915        C920   1.507       .  S
C916        C917   1.408       .  A
C916        H921   1.084       .  S
C917        C918   1.421       .  A
C918        C922   1.509       .  S
C919        C924   1.409       .  A
C919        C928   1.400       .  A
C920        H936   1.110       .  S
C920        H937   1.109       .  S
C920        H938   1.110       .  S
C922        H933   1.111       .  S
C922        H934   1.110       .  S
C922        H935   1.106       .  S
C924        C925   1.404       .  A
C924        C929   1.507       .  S
C925        C926   1.408       .  A
C925        H930   1.084       .  S
C926        C927   1.417       .  A
C927        C928   1.405       .  A
C927        C931   1.507       .  S
C928        H932   1.084       .  S
C929        H939   1.111       .  S
C929        H940   1.110       .  S
C929        H941   1.109       .  S
C931        H942   1.111       .  S
C931        H943   1.109       .  S
C931        H944   1.110       .  S
C945        C946   1.402       .  A
C945        C950   1.407       .  A
C945        H955   1.085       .  S
C946        C951   1.483   1_455  S
C946        C947   1.408       .  A
C947        C948   1.401       .  A
C947        C952   1.507       .  S
C948        C949   1.408       .  A
C948        H953   1.082       .  S
C949        C950   1.421       .  A
C950        C954   1.508       .  S
C951        C956   1.409       .  A
C951        C960   1.402       .  A
C952        H968   1.110       .  S
C952        H969   1.110   1_455  S
C952        H970   1.111       .  S
C954        H965   1.110       .  S
C954        H966   1.111       .  S
C954        H967   1.105       .  S
C956        C957   1.403       .  A
C956        C961   1.506       .  S
C957        C958   1.407       .  A
C957        H962   1.084       .  S
C958        C959   1.418       .  A
C959        C960   1.406       .  A
C959        C963   1.506       .  S
C960        H964   1.084       .  S
C961        H971   1.111       .  S
C961        H972   1.110       .  S
C961        H973   1.110       .  S
C963        H974   1.111       .  S
C963        H975   1.110       .  S
C963        H976   1.109       .  S
C977        C978   1.398   1_545  A
C977        C982   1.405       .  A
C977        H987   1.084       .  S
C978        C983   1.480       .  S
C978        C979   1.408       .  A
C979        C980   1.404       .  A
C979        C984   1.508       .  S
C980        C981   1.412       .  A
C980        H985   1.084       .  S
C981        C982   1.420   1_565  A
C982        C986   1.502       .  S
C983        C988   1.409       .  A
C983        C992   1.400       .  A
C984       H1000   1.110       .  S
C984       H1001   1.109       .  S
C984       H1002   1.111       .  S
C986        H997   1.108       .  S
C986        H998   1.111       .  S
C986        H999   1.109       .  S
C988        C989   1.404       .  A
C988        C993   1.507       .  S
C989        C990   1.407       .  A
C989        H994   1.084       .  S
C990        C991   1.420       .  A
C991        C992   1.403       .  A
C991        C995   1.509       .  S
C992        H996   1.085       .  S
C993       H1003   1.111       .  S
C993       H1004   1.110       .  S
C993       H1005   1.109       .  S
C995       H1006   1.111   1_565  S
C995       H1007   1.106       .  S
C995       H1008   1.111       .  S
C1009      C1010   1.403       .  A
C1009      C1014   1.404       .  A
C1009      H1019   1.085   1_545  S
C1010      C1015   1.478       .  S
C1010      C1011   1.407       .  A
C1011      C1012   1.399       .  A
C1011      C1016   1.507       .  S
C1012      C1013   1.405       .  A
C1012      H1017   1.084       .  S
C1013      C1014   1.417       .  A
C1014      C1018   1.508   1_545  S
C1015      C1020   1.409   1_545  A
C1015      C1024   1.399       .  A
C1016      H1032   1.110       .  S
C1016      H1033   1.110       .  S
C1016      H1034   1.111       .  S
C1018      H1029   1.110       .  S
C1018      H1030   1.111   1_565  S
C1018      H1031   1.106   1_565  S
C1020      C1021   1.403       .  A
C1020      C1025   1.506       .  S
C1021      C1022   1.406   1_565  A
C1021      H1026   1.084       .  S
C1022      C1023   1.419       .  A
C1023      C1024   1.400       .  A
C1023      C1027   1.508       .  S
C1024      H1028   1.085       .  S
C1025      H1035   1.111       .  S
C1025      H1036   1.110       .  S
C1025      H1037   1.111       .  S
C1027      H1038   1.110       .  S
C1027      H1039   1.107       .  S
C1027      H1040   1.111       .  S
C1041      C1042   1.401       .  A
C1041      C1046   1.403       .  A
C1041      H1051   1.085       .  S
C1042      C1047   1.481       .  S
C1042      C1043   1.410       .  A
C1043      C1044   1.405       .  A
C1043      C1048   1.506       .  S
C1044      C1045   1.405       .  A
C1044      H1049   1.084       .  S
C1045      C1046   1.417       .  A
C1046      C1050   1.508       .  S
C1047      C1052   1.410       .  A
C1047      C1056   1.401       .  A
C1048      H1064   1.110       .  S
C1048      H1065   1.110       .  S
C1048      H1066   1.111       .  S
C1050      H1061   1.111       .  S
C1050      H1062   1.110       .  S
C1050      H1063   1.108       .  S
C1052      C1053   1.405       .  A
C1052      C1057   1.506       .  S
C1053      C1054   1.403       .  A
C1053      H1058   1.084       .  S
C1054      C1055   1.417       .  A
C1055      C1056   1.404       .  A
C1055      C1059   1.508       .  S
C1056      H1060   1.085       .  S
C1057      H1067   1.111       .  S
C1057      H1068   1.110       .  S
C1057      H1069   1.110       .  S
C1059      H1070   1.110       .  S
C1059      H1071   1.108       .  S
C1059      H1072   1.111       .  S
C1073      C1074   1.398       .  A
C1073      C1078   1.405       .  A
C1073      H1083   1.084       .  S
C1074      C1079   1.477       .  S
C1074      C1075   1.408       .  A
C1075      C1076   1.400       .  A
C1075      C1080   1.507       .  S
C1076      C1077   1.408       .  A
C1076      H1081   1.084       .  S
C1077      C1078   1.422       .  A
C1078      C1082   1.507       .  S
C1079      C1084   1.409       .  A
C1079      C1088   1.398       .  A
C1080      H1096   1.110       .  S
C1080      H1097   1.110       .  S
C1080      H1098   1.111       .  S
C1082      H1093   1.111       .  S
C1082      H1094   1.110       .  S
C1082      H1095   1.109       .  S
C1084      C1085   1.403       .  A
C1084      C1089   1.507       .  S
C1085      C1086   1.409       .  A
C1085      H1090   1.084       .  S
C1086      C1087   1.420       .  A
C1087      C1088   1.403       .  A
C1087      C1091   1.508       .  S
C1088      H1092   1.084       .  S
C1089      H1099   1.111       .  S
C1089      H1100   1.110       .  S
C1089      H1101   1.110       .  S
C1091      H1102   1.111       .  S
C1091      H1103   1.109       .  S
C1091      H1104   1.111       .  S
C1105      C1106   1.402   1_455  A
C1105      C1110   1.406       .  A
C1105      H1115   1.084       .  S
C1106      C1111   1.485       .  S
C1106      C1107   1.410   1_545  A
C1107      C1108   1.404       .  A
C1107      C1112   1.506       .  S
C1108      C1109   1.408   1_565  A
C1108      H1113   1.084       .  S
C1109      C1110   1.418   1_655  A
C1110      C1114   1.507       .  S
C1111      C1116   1.408   1_645  A
C1111      C1120   1.401       .  A
C1112      H1128   1.110       .  S
C1112      H1129   1.110       .  S
C1112      H1130   1.111       .  S
C1114      H1125   1.109       .  S
C1114      H1126   1.111       .  S
C1114      H1127   1.110       .  S
C1116      C1117   1.404       .  A
C1116      C1121   1.508       .  S
C1117      C1118   1.410   1_455  A
C1117      H1122   1.083       .  S
C1118      C1119   1.423   1_565  A
C1119      C1120   1.409       .  A
C1119      C1123   1.507       .  S
C1120      H1124   1.084       .  S
C1121      H1131   1.111       .  S
C1121      H1132   1.110       .  S
C1121      H1133   1.111       .  S
C1123      H1134   1.107       .  S
C1123      H1135   1.111       .  S
C1123      H1136   1.111       .  S
C1137      C1138   1.400       .  A
C1137      C1142   1.402       .  A
C1137      H1147   1.085   1_455  S
C1138      C1143   1.483       .  S
C1138      C1139   1.411   1_565  A
C1139      C1140   1.406       .  A
C1139      C1144   1.506       .  S
C1140      C1141   1.405   1_545  A
C1140      H1145   1.084       .  S
C1141      C1142   1.417       .  A
C1142      C1146   1.509   1_455  S
C1143      C1148   1.409   1_455  A
C1143      C1152   1.398       .  A
C1144      H1160   1.110       .  S
C1144      H1161   1.110       .  S
C1144      H1162   1.111       .  S
C1146      H1157   1.111       .  S
C1146      H1158   1.110   1_655  S
C1146      H1159   1.106       .  S
C1148      C1149   1.406       .  A
C1148      C1153   1.507       .  S
C1149      C1150   1.410   1_655  A
C1149      H1154   1.083       .  S
C1150      C1151   1.423       .  A
C1151      C1152   1.405       .  A
C1151      C1155   1.508       .  S
C1152      H1156   1.085       .  S
C1153      H1163   1.111       .  S
C1153      H1164   1.110       .  S
C1153      H1165   1.110   1_565  S
C1155      H1166   1.111       .  S
C1155      H1167   1.106       .  S
C1155      H1168   1.110       .  S
C1169      C1170   1.397       .  A
C1169      C1174   1.404       .  A
C1169      H1179   1.084       .  S
C1170      C1175   1.478       .  S
C1170      C1171   1.408   1_565  A
C1171      C1172   1.402       .  A
C1171      C1176   1.506       .  S
C1172      C1173   1.408   1_545  A
C1172      H1177   1.084       .  S
C1173      C1174   1.425       .  A
C1174      C1178   1.509       .  S
C1175      C1180   1.409       .  A
C1175      C1184   1.399   1_565  A
C1176      H1192   1.110       .  S
C1176      H1193   1.110       .  S
C1176      H1194   1.111       .  S
C1178      H1189   1.110       .  S
C1178      H1190   1.111       .  S
C1178      H1191   1.109       .  S
C1180      C1181   1.405       .  A
C1180      C1185   1.506       .  S
C1181      C1182   1.406       .  A
C1181      H1186   1.084       .  S
C1182      C1183   1.418   1_565  A
C1183      C1184   1.402       .  A
C1183      C1187   1.509       .  S
C1184      H1188   1.085       .  S
C1185      H1195   1.110       .  S
C1185      H1196   1.110       .  S
C1185      H1197   1.110       .  S
C1187      H1198   1.110       .  S
C1187      H1199   1.107       .  S
C1187      H1200   1.111       .  S
C1201      C1202   1.396       .  A
C1201      C1206   1.401       .  A
C1201      H1211   1.084       .  S
C1202      C1207   1.480       .  S
C1202      C1203   1.410   1_545  A
C1203      C1204   1.407       .  A
C1203      C1208   1.507       .  S
C1204      C1205   1.409   1_565  A
C1204      H1209   1.083       .  S
C1205      C1206   1.421       .  A
C1206      C1210   1.507       .  S
C1207      C1212   1.409   1_545  A
C1207      C1216   1.400       .  A
C1208      H1224   1.110       .  S
C1208      H1225   1.110       .  S
C1208      H1226   1.111       .  S
C1210      H1221   1.109       .  S
C1210      H1222   1.110       .  S
C1210      H1223   1.111       .  S
C1212      C1213   1.401   1_565  A
C1212      C1217   1.507       .  S
C1213      C1214   1.407       .  A
C1213      H1218   1.084   1_545  S
C1214      C1215   1.421       .  A
C1215      C1216   1.406       .  A
C1215      C1219   1.507       .  S
C1216      H1220   1.084       .  S
C1217      H1227   1.111       .  S
C1217      H1228   1.110   1_565  S
C1217      H1229   1.110       .  S
C1219      H1230   1.111       .  S
C1219      H1231   1.110       .  S
C1219      H1232   1.109   1_545  S
C1233      C1234   1.396       .  A
C1233      C1238   1.401       .  A
C1233      H1243   1.084       .  S
C1234      C1239   1.481       .  S
C1234      C1235   1.412       .  A
C1235      C1236   1.406       .  A
C1235      C1240   1.506       .  S
C1236      C1237   1.406       .  A
C1236      H1241   1.084       .  S
C1237      C1238   1.422       .  A
C1238      C1242   1.509       .  S
C1239      C1244   1.411       .  A
C1239      C1248   1.399       .  A
C1240      H1256   1.110       .  S
C1240      H1257   1.110       .  S
C1240      H1258   1.111       .  S
C1242      H1253   1.109       .  S
C1242      H1254   1.111       .  S
C1242      H1255   1.111       .  S
C1244      C1245   1.405       .  A
C1244      C1249   1.506       .  S
C1245      C1246   1.407       .  A
C1245      H1250   1.084       .  S
C1246      C1247   1.418       .  A
C1247      C1248   1.401       .  A
C1247      C1251   1.507       .  S
C1248      H1252   1.085       .  S
C1249      H1259   1.111       .  S
C1249      H1260   1.110       .  S
C1249      H1261   1.110       .  S
C1251      H1262   1.111       .  S
C1251      H1263   1.107       .  S
C1251      H1264   1.110       .  S
C1265      C1266   1.399       .  A
C1265      C1270   1.400       .  A
C1265      H1275   1.085       .  S
C1266      C1271   1.478       .  S
C1266      C1267   1.411       .  A
C1267      C1268   1.404       .  A
C1267      C1272   1.506       .  S
C1268      C1269   1.403       .  A
C1268      H1273   1.084       .  S
C1269      C1270   1.417       .  A
C1270      C1274   1.509       .  S
C1271      C1276   1.408       .  A
C1271      C1280   1.400       .  A
C1272      H1288   1.110       .  S
C1272      H1289   1.110       .  S
C1272      H1290   1.111       .  S
C1274      H1285   1.111       .  S
C1274      H1286   1.110       .  S
C1274      H1287   1.107       .  S
C1276      C1277   1.401       .  A
C1276      C1281   1.507       .  S
C1277      C1278   1.407       .  A
C1277      H1282   1.084       .  S
C1278      C1279   1.419       .  A
C1279      C1280   1.406       .  A
C1279      C1283   1.506       .  S
C1280      H1284   1.084       .  S
C1281      H1291   1.110       .  S
C1281      H1292   1.110       .  S
C1281      H1293   1.111       .  S
C1283      H1294   1.111       .  S
C1283      H1295   1.110       .  S
C1283      H1296   1.110       .  S
